@<TRIPOS>MOLECULE
*****
 28 30 0 0 0
SMALL
GASTEIGER

@<TRIPOS>ATOM
      1 C          64.5361   91.7105   15.2402 C.2     1  UNL1        0.0412
      2 C          64.1475   90.2912   15.5307 C.2     1  UNL1       -0.0326
      3 C          64.5495   89.1956   14.5883 C.3     1  UNL1        0.0442
      4 C          64.1610   87.7763   14.8788 C.3     1  UNL1        0.0993
      5 N          63.3704   87.4524   16.1118 N.am    1  UNL1       -0.2634
      6 C          62.9819   86.0331   16.4024 C.2     1  UNL1        0.3074
      7 O          62.1914   85.7093   17.6354 O.2     1  UNL1       -0.2523
      8 N          63.3839   84.9375   15.4600 N.am    1  UNL1       -0.2602
      9 C          62.9953   83.5182   15.7505 C.3     1  UNL1        0.1167
     10 C          62.9685   88.5480   17.0543 C.3     1  UNL1        0.0993
     11 C          63.3570   89.9674   16.7637 C.3     1  UNL1        0.0442
     12 C          66.1171   92.3582   12.7742 C.1     1  UNL1       -0.0405
     13 C          65.3266   92.0344   14.0071 C.1     1  UNL1       -0.0583
     14 C          67.4056   95.6902    9.0009 C.3     1  UNL1        0.0521
     15 C          67.5518   94.3480    9.6545 C.ar    1  UNL1        0.0600
     16 C          68.4886   93.3297    9.0752 C.ar    1  UNL1        0.0148
     17 C          68.6348   91.9876    9.7289 C.ar    1  UNL1        0.0034
     18 C          67.8443   91.6638   10.9619 C.ar    1  UNL1        0.0276
     19 C          66.9076   92.6820   11.5411 C.ar    1  UNL1        0.1224
     20 N          66.7614   94.0242   10.8875 N.ar    1  UNL1       -0.2414
     21 C          64.1744   85.2613   14.2270 C.3     1  UNL1        0.0995
     22 C          65.6531   85.4940   14.3237 C.3     1  UNL1        0.0265
     23 C          63.4862   85.3523   12.8973 C.ar    1  UNL1       -0.0042
     24 C          63.3646   84.1340   12.0308 C.ar    1  UNL1       -0.0027
     25 C          62.6764   84.2250   10.7011 C.ar    1  UNL1       -0.0003
     26 C          62.1099   85.5344   10.2378 C.ar    1  UNL1       -0.0000
     27 C          62.2316   86.7528   11.1043 C.ar    1  UNL1       -0.0003
     28 C          62.9197   86.6618   12.4341 C.ar    1  UNL1       -0.0027
@<TRIPOS>BOND
     1    14    15    1
     2    15    16   ar
     3    16    17   ar
     4    17    18   ar
     5    18    19   ar
     6    19    12    1
     7    12    13    3
     8    13     1    1
     9     1     2    2
    10     2     3    1
    11     3     4    1
    12     4     5    1
    13     5     6   am
    14     6     7    2
    15     6     8   am
    16     8     9    1
    17     8    21    1
    18    21    22    1
    19    21    23    1
    20    23    24   ar
    21    24    25   ar
    22    25    26   ar
    23    26    27   ar
    24    27    28   ar
    25     5    10    1
    26    10    11    1
    27    19    20   ar
    28    20    15   ar
    29    11     2    1
    30    28    23   ar
@<TRIPOS>MOLECULE
*****
 28 30 0 0 0
SMALL
GASTEIGER

@<TRIPOS>ATOM
      1 C          63.2246   87.9176   16.5803 C.2     1  UNL1        0.0412
      2 C          63.0810   86.5925   15.8923 C.2     1  UNL1       -0.0326
      3 C          63.5938   86.4139   14.4941 C.3     1  UNL1        0.0442
      4 C          63.4502   85.0887   13.8061 C.3     1  UNL1        0.0993
      5 N          62.7938   83.9421   14.5163 N.am    1  UNL1       -0.2634
      6 C          62.6502   82.6170   13.8284 C.2     1  UNL1        0.3074
      7 O          61.9938   81.4705   14.5386 O.2     1  UNL1       -0.2523
      8 N          63.1630   82.4384   12.4301 N.am    1  UNL1       -0.2602
      9 C          63.0194   81.1133   11.7421 C.3     1  UNL1        0.1167
     10 C          62.2809   84.1207   15.9146 C.3     1  UNL1        0.0993
     11 C          62.4246   85.4459   16.6026 C.3     1  UNL1        0.0442
     12 C          64.5374   90.2108   15.1598 C.1     1  UNL1       -0.0405
     13 C          63.8810   89.0642   15.8700 C.1     1  UNL1       -0.0583
     14 C          65.3672   92.9276   10.8089 C.3     1  UNL1        0.0521
     15 C          65.6087   92.7158   12.2741 C.ar    1  UNL1        0.0600
     16 C          66.5066   93.6505   13.0290 C.ar    1  UNL1        0.0148
     17 C          66.7481   93.4387   14.4942 C.ar    1  UNL1        0.0034
     18 C          66.0917   92.2921   15.2045 C.ar    1  UNL1        0.0276
     19 C          65.1938   91.3574   14.4495 C.ar    1  UNL1        0.1224
     20 N          64.9523   91.5692   12.9843 N.ar    1  UNL1       -0.2414
     21 C          63.8194   83.5849   11.7198 C.3     1  UNL1        0.0995
     22 C          65.2521   83.9241   12.0074 C.3     1  UNL1        0.0265
     23 C          63.0433   84.3924   10.7220 C.ar    1  UNL1       -0.0042
     24 C          61.8948   85.2435   11.1766 C.ar    1  UNL1       -0.0027
     25 C          61.1187   86.0509   10.1788 C.ar    1  UNL1       -0.0003
     26 C          61.4910   86.0073    8.7264 C.ar    1  UNL1       -0.0000
     27 C          62.6395   85.1562    8.2718 C.ar    1  UNL1       -0.0003
     28 C          63.4157   84.3487    9.2696 C.ar    1  UNL1       -0.0027
@<TRIPOS>BOND
     1    14    15    1
     2    15    16   ar
     3    16    17   ar
     4    17    18   ar
     5    18    19   ar
     6    19    12    1
     7    12    13    3
     8    13     1    1
     9     1     2    2
    10     2     3    1
    11     3     4    1
    12     4     5    1
    13     5     6   am
    14     6     7    2
    15     6     8   am
    16     8     9    1
    17     8    21    1
    18    21    22    1
    19    21    23    1
    20    23    24   ar
    21    24    25   ar
    22    25    26   ar
    23    26    27   ar
    24    27    28   ar
    25     5    10    1
    26    10    11    1
    27    19    20   ar
    28    20    15   ar
    29    11     2    1
    30    28    23   ar
@<TRIPOS>MOLECULE
*****
 28 30 0 0 0
SMALL
GASTEIGER

@<TRIPOS>ATOM
      1 C          62.2526   88.9431   10.1063 C.2     1  UNL1        0.0412
      2 C          62.3574   87.6437   10.8484 C.2     1  UNL1       -0.0326
      3 C          63.3023   87.5154   12.0062 C.3     1  UNL1        0.0442
      4 C          63.4071   86.2160   12.7483 C.3     1  UNL1        0.0993
      5 N          62.5670   85.0450   12.3325 N.am    1  UNL1       -0.2634
      6 C          62.6718   83.7456   13.0745 C.2     1  UNL1        0.3074
      7 O          61.8317   82.5746   12.6587 O.2     1  UNL1       -0.2523
      8 N          63.6167   83.6173   14.2324 N.am    1  UNL1       -0.2602
      9 C          63.7215   82.3179   14.9744 C.3     1  UNL1        0.1167
     10 C          61.6221   85.1733   11.1746 C.3     1  UNL1        0.0993
     11 C          61.5173   86.4727   10.4325 C.3     1  UNL1        0.0442
     12 C          63.9328   91.2851   10.9379 C.1     1  UNL1       -0.0405
     13 C          63.0927   90.1142   10.5221 C.1     1  UNL1       -0.0583
     14 C          66.7465   93.7501   14.5445 C.3     1  UNL1        0.0521
     15 C          66.1798   93.6886   13.1570 C.ar    1  UNL1        0.0600
     16 C          66.4531   94.7982   12.1854 C.ar    1  UNL1        0.0148
     17 C          65.8863   94.7368   10.7980 C.ar    1  UNL1        0.0034
     18 C          65.0462   93.5658   10.3822 C.ar    1  UNL1        0.0276
     19 C          64.7729   92.4562   11.3538 C.ar    1  UNL1        0.1224
     20 N          65.3397   92.5176   12.7412 N.ar    1  UNL1       -0.2414
     21 C          64.4568   84.7883   14.6482 C.3     1  UNL1        0.0995
     22 C          65.8633   84.9192   14.1435 C.3     1  UNL1        0.0265
     23 C          63.8905   85.8284   15.5688 C.ar    1  UNL1       -0.0042
     24 C          64.1951   87.2790   15.3392 C.ar    1  UNL1       -0.0027
     25 C          63.6287   88.3191   16.2598 C.ar    1  UNL1       -0.0003
     26 C          62.7578   87.9086   17.4099 C.ar    1  UNL1       -0.0000
     27 C          62.4532   86.4579   17.6396 C.ar    1  UNL1       -0.0003
     28 C          63.0195   85.4178   16.7190 C.ar    1  UNL1       -0.0027
@<TRIPOS>BOND
     1    14    15    1
     2    15    16   ar
     3    16    17   ar
     4    17    18   ar
     5    18    19   ar
     6    19    12    1
     7    12    13    3
     8    13     1    1
     9     1     2    2
    10     2     3    1
    11     3     4    1
    12     4     5    1
    13     5     6   am
    14     6     7    2
    15     6     8   am
    16     8     9    1
    17     8    21    1
    18    21    22    1
    19    21    23    1
    20    23    24   ar
    21    24    25   ar
    22    25    26   ar
    23    26    27   ar
    24    27    28   ar
    25     5    10    1
    26    10    11    1
    27    19    20   ar
    28    20    15   ar
    29    11     2    1
    30    28    23   ar
@<TRIPOS>MOLECULE
*****
 28 30 0 0 0
SMALL
GASTEIGER

@<TRIPOS>ATOM
      1 C          60.5151   86.5539    8.4168 C.2     1  UNL1        0.0412
      2 C          61.2994   86.8351    9.6641 C.2     1  UNL1       -0.0326
      3 C          61.5667   88.2517   10.0786 C.3     1  UNL1        0.0442
      4 C          62.3510   88.5329   11.3259 C.3     1  UNL1        0.0993
      5 N          62.8681   87.3975   12.1587 N.am    1  UNL1       -0.2634
      6 C          63.6525   87.6787   13.4059 C.2     1  UNL1        0.3074
      7 O          64.1696   86.5433   14.2386 O.2     1  UNL1       -0.2523
      8 N          63.9197   89.0953   13.8205 N.am    1  UNL1       -0.2602
      9 C          64.7041   89.3765   15.0677 C.3     1  UNL1        0.1167
     10 C          62.6009   85.9809   11.7441 C.3     1  UNL1        0.0993
     11 C          61.8165   85.6997   10.4968 C.3     1  UNL1        0.0442
     12 C          59.4808   88.8247    6.7513 C.1     1  UNL1       -0.0405
     13 C          59.9980   87.6893    7.5840 C.1     1  UNL1       -0.0583
     14 C          60.3531   92.7765    3.4920 C.3     1  UNL1        0.0521
     15 C          59.3999   91.9360    4.2889 C.ar    1  UNL1        0.0600
     16 C          57.9296   92.2309    4.2530 C.ar    1  UNL1        0.0148
     17 C          56.9764   91.3904    5.0498 C.ar    1  UNL1        0.0034
     18 C          57.4934   90.2550    5.8826 C.ar    1  UNL1        0.0276
     19 C          58.9637   89.9601    5.9185 C.ar    1  UNL1        0.1224
     20 N          59.9169   90.8006    5.1216 N.ar    1  UNL1       -0.2414
     21 C          63.4027   90.2307   12.9877 C.3     1  UNL1        0.0995
     22 C          61.9304   90.3642   12.7330 C.3     1  UNL1        0.0265
     23 C          64.3577   91.2326   12.4097 C.ar    1  UNL1       -0.0042
     24 C          65.4415   91.8167   13.2666 C.ar    1  UNL1       -0.0027
     25 C          66.3965   92.8186   12.6886 C.ar    1  UNL1       -0.0003
     26 C          66.2678   93.2363   11.2537 C.ar    1  UNL1       -0.0000
     27 C          65.1840   92.6522   10.3968 C.ar    1  UNL1       -0.0003
     28 C          64.2290   91.6503   10.9748 C.ar    1  UNL1       -0.0027
@<TRIPOS>BOND
     1    14    15    1
     2    15    16   ar
     3    16    17   ar
     4    17    18   ar
     5    18    19   ar
     6    19    12    1
     7    12    13    3
     8    13     1    1
     9     1     2    2
    10     2     3    1
    11     3     4    1
    12     4     5    1
    13     5     6   am
    14     6     7    2
    15     6     8   am
    16     8     9    1
    17     8    21    1
    18    21    22    1
    19    21    23    1
    20    23    24   ar
    21    24    25   ar
    22    25    26   ar
    23    26    27   ar
    24    27    28   ar
    25     5    10    1
    26    10    11    1
    27    19    20   ar
    28    20    15   ar
    29    11     2    1
    30    28    23   ar
