@<TRIPOS>MOLECULE
*****
 39 41 0 0 0
SMALL
GASTEIGER

@<TRIPOS>ATOM
      1 N          63.8970   90.6768   13.5997 N.am    1  UNL1       -0.2770
      2 C          62.7239   90.1340   12.8387 C.2     1  UNL1        0.2253
      3 O          61.7256   89.2521   13.5284 O.2     1  UNL1       -0.2749
      4 C          62.5492   90.4731   11.3880 C.3     1  UNL1        0.0764
      5 C          61.3449   89.6042   11.5994 C.3     1  UNL1        0.0095
      6 C          63.5475   91.3549   10.6984 C.3     1  UNL1        0.0154
      7 C          64.7206   91.8977   11.4594 C.3     1  UNL1        0.0452
      8 C          64.8953   91.5586   12.9101 C.3     1  UNL1        0.1018
      9 C          65.7189   92.7796   10.7697 C.ar    1  UNL1       -0.0197
     10 C          65.4428   94.2456   10.6133 C.ar    1  UNL1       -0.0042
     11 C          66.4412   95.1275    9.9236 C.ar    1  UNL1        0.0005
     12 C          67.7157   94.5433    9.3904 C.ar    1  UNL1        0.0114
     13 C          67.9918   93.0772    9.5469 C.ar    1  UNL1        0.0574
     14 CL         69.2663   92.4930    9.0137 Cl      1  UNL1       -0.0823
     15 C          66.9935   92.1954   10.2365 C.ar    1  UNL1        0.0072
     16 C          66.0685   92.1014   13.6711 C.ar    1  UNL1       -0.0039
     17 C          66.1437   93.5654   13.9893 C.ar    1  UNL1       -0.0018
     18 C          67.3168   94.1082   14.7503 C.ar    1  UNL1        0.0111
     19 C          68.4148   93.1871   15.1931 C.ar    1  UNL1        0.0577
     20 CL         69.5879   93.7299   15.9540 Cl      1  UNL1       -0.0822
     21 C          68.3397   91.7232   14.8748 C.ar    1  UNL1        0.0111
     22 C          67.1665   91.1804   14.1138 C.ar    1  UNL1       -0.0018
     23 C          64.0718   90.3377   15.0504 C.3     1  UNL1        0.0991
     24 C          64.4513   92.1483   16.8746 C.3     1  UNL1        0.0018
     25 C          63.5255   91.2530   16.1057 C.3     1  UNL1        0.0216
     26 C          64.7930   89.0833   15.4458 C.3     1  UNL1        0.1703
     27 S          64.0146   87.8600   15.8299 S.O2    1  UNL1       -0.0115
     28 O          63.3651   88.6236   16.9457 O.2     1  UNL1       -0.1730
     29 O          64.6641   87.0964   14.7141 O.2     1  UNL1       -0.1730
     30 C          63.2362   86.6367   16.2140 C.3     1  UNL1        0.1108
     31 C          62.6516   87.3752   17.3814 C.3     1  UNL1        0.0236
     32 C          63.8208   85.8981   15.0466 C.3     1  UNL1        0.0236
     33 C          62.4578   85.4133   16.5981 C.3     1  UNL1        0.0236
     34 C          61.9561   90.5103   10.0108 C.3     1  UNL1        0.0757
     35 C          61.4144   89.2552    9.3933 C.2     1  UNL1        0.1805
     36 O          62.2224   87.9920    9.4305 O.2     1  UNL1       -0.2934
     37 C          60.0649   89.2633    8.7386 C.3     1  UNL1        0.2019
     38 O          59.9268   89.6994    7.3101 O.3     1  UNL1       -0.3750
     39 H          60.1485   90.6409    7.2366 H       1  UNL1        0.2110
@<TRIPOS>BOND
     1    24    25    1
     2    23    25    1
     3    23    26    1
     4    26    27    1
     5    27    28    2
     6    27    29    2
     7    27    30    1
     8    30    31    1
     9    30    32    1
    10    30    33    1
    11    23     1    1
    12     1     2   am
    13     2     3    2
    14     2     4    1
    15     4     5    1
    16     4    34    1
    17    34    35    1
    18    35    36    2
    19    35    37    1
    20    37    38    1
    21     4     6    1
    22     6     7    1
    23     7     9    1
    24     9    10   ar
    25    10    11   ar
    26    11    12   ar
    27    12    13   ar
    28    13    14    1
    29    13    15   ar
    30     7     8    1
    31     8    16    1
    32    16    17   ar
    33    17    18   ar
    34    18    19   ar
    35    19    20    1
    36    19    21   ar
    37    21    22   ar
    38     8     1    1
    39    22    16   ar
    40    15     9   ar
    41    38    39    1
@<TRIPOS>MOLECULE
*****
 39 41 0 0 0
SMALL
GASTEIGER

@<TRIPOS>ATOM
      1 N          63.7516   85.8356   13.2301 N.am    1  UNL1       -0.2770
      2 C          63.7419   87.2618   13.6944 C.2     1  UNL1        0.2253
      3 O          64.2815   87.6132   15.0492 O.2     1  UNL1       -0.2749
      4 C          63.1927   88.3368   12.8040 C.3     1  UNL1        0.0764
      5 C          63.5894   89.1608   13.9929 C.3     1  UNL1        0.0095
      6 C          62.6531   87.9855   11.4493 C.3     1  UNL1        0.0154
      7 C          62.6628   86.5592   10.9849 C.3     1  UNL1        0.0452
      8 C          63.2120   85.4843   11.8753 C.3     1  UNL1        0.1018
      9 C          62.1231   86.2079    9.6301 C.ar    1  UNL1       -0.0197
     10 C          62.9792   85.4575    8.6534 C.ar    1  UNL1       -0.0042
     11 C          62.4396   85.1061    7.2986 C.ar    1  UNL1        0.0005
     12 C          61.0439   85.5051    6.9206 C.ar    1  UNL1        0.0114
     13 C          60.1879   86.2556    7.8974 C.ar    1  UNL1        0.0574
     14 CL         58.7922   86.6546    7.5194 Cl      1  UNL1       -0.0823
     15 C          60.7275   86.6069    9.2521 C.ar    1  UNL1        0.0072
     16 C          63.2216   84.0580   11.4109 C.ar    1  UNL1       -0.0039
     17 C          64.4990   83.4334   10.9333 C.ar    1  UNL1       -0.0018
     18 C          64.5087   82.0071   10.4689 C.ar    1  UNL1        0.0111
     19 C          63.2410   81.2054   10.4821 C.ar    1  UNL1        0.0577
     20 CL         63.2506   79.7792   10.0177 Cl      1  UNL1       -0.0822
     21 C          61.9635   81.8300   10.9597 C.ar    1  UNL1        0.0111
     22 C          61.9539   83.2563   11.4241 C.ar    1  UNL1       -0.0018
     23 C          64.3008   84.7606   14.1205 C.3     1  UNL1        0.0991
     24 C          66.6823   85.3578   14.9701 C.3     1  UNL1        0.0018
     25 C          65.7760   84.4904   14.1477 C.3     1  UNL1        0.0216
     26 C          63.3749   83.9559   14.9836 C.3     1  UNL1        0.1703
     27 S          62.9905   82.5642   14.5770 S.O2    1  UNL1       -0.0115
     28 O          64.4387   82.1756   14.5377 O.2     1  UNL1       -0.1730
     29 O          61.5422   82.9528   14.6164 O.2     1  UNL1       -0.1730
     30 C          62.6060   81.1725   14.1705 C.3     1  UNL1        0.1108
     31 C          64.0499   80.8432   13.9323 C.3     1  UNL1        0.0236
     32 C          61.1621   81.5018   14.4086 C.3     1  UNL1        0.0236
     33 C          62.2215   79.7808   13.7639 C.3     1  UNL1        0.0236
     34 C          62.7812   89.6979   12.3266 C.3     1  UNL1        0.0757
     35 C          61.3906   89.9233   11.8113 C.2     1  UNL1        0.1805
     36 O          60.2086   89.5935   12.6738 O.2     1  UNL1       -0.2934
     37 C          61.1821   90.4784   10.4335 C.3     1  UNL1        0.2019
     38 O          59.8042   90.5196    9.8421 O.3     1  UNL1       -0.3750
     39 H          59.4852   89.6142    9.7023 H       1  UNL1        0.2110
@<TRIPOS>BOND
     1    24    25    1
     2    23    25    1
     3    23    26    1
     4    26    27    1
     5    27    28    2
     6    27    29    2
     7    27    30    1
     8    30    31    1
     9    30    32    1
    10    30    33    1
    11    23     1    1
    12     1     2   am
    13     2     3    2
    14     2     4    1
    15     4     5    1
    16     4    34    1
    17    34    35    1
    18    35    36    2
    19    35    37    1
    20    37    38    1
    21     4     6    1
    22     6     7    1
    23     7     9    1
    24     9    10   ar
    25    10    11   ar
    26    11    12   ar
    27    12    13   ar
    28    13    14    1
    29    13    15   ar
    30     7     8    1
    31     8    16    1
    32    16    17   ar
    33    17    18   ar
    34    18    19   ar
    35    19    20    1
    36    19    21   ar
    37    21    22   ar
    38     8     1    1
    39    22    16   ar
    40    15     9   ar
    41    38    39    1
@<TRIPOS>MOLECULE
*****
 39 41 0 0 0
SMALL
GASTEIGER

@<TRIPOS>ATOM
      1 N          63.5189   85.1622   12.5977 N.am    1  UNL1       -0.2770
      2 C          64.1206   85.3744   13.9552 C.2     1  UNL1        0.2253
      3 O          64.7040   84.2146   14.7067 O.2     1  UNL1       -0.2749
      4 C          64.1390   86.7464   14.5613 C.3     1  UNL1        0.0764
      5 C          64.8096   85.9693   15.6552 C.3     1  UNL1        0.0095
      6 C          63.5557   87.9061   13.8099 C.3     1  UNL1        0.0154
      7 C          62.9540   87.6939   12.4524 C.3     1  UNL1        0.0452
      8 C          62.9356   86.3219   11.8463 C.3     1  UNL1        0.1018
      9 C          62.3707   88.8537   11.7009 C.ar    1  UNL1       -0.0197
     10 C          63.1949   89.5736   10.6751 C.ar    1  UNL1       -0.0042
     11 C          62.6115   90.7334    9.9236 C.ar    1  UNL1        0.0005
     12 C          61.2040   91.1732   10.1980 C.ar    1  UNL1        0.0114
     13 C          60.3797   90.4532   11.2239 C.ar    1  UNL1        0.0574
     14 CL         58.9722   90.8930   11.4982 Cl      1  UNL1       -0.0823
     15 C          60.9631   89.2935   11.9753 C.ar    1  UNL1        0.0072
     16 C          62.3338   86.1097   10.4887 C.ar    1  UNL1       -0.0039
     17 C          60.8847   86.4181   10.2542 C.ar    1  UNL1       -0.0018
     18 C          60.2830   86.2059    8.8967 C.ar    1  UNL1        0.0111
     19 C          61.1303   85.6854    7.7737 C.ar    1  UNL1        0.0577
     20 CL         60.5285   85.4732    6.4162 Cl      1  UNL1       -0.0822
     21 C          62.5794   85.3771    8.0082 C.ar    1  UNL1        0.0111
     22 C          63.1812   85.5892    9.3658 C.ar    1  UNL1       -0.0018
     23 C          63.5005   83.7902   11.9916 C.3     1  UNL1        0.0991
     24 C          64.6209   82.5170   10.0235 C.3     1  UNL1        0.0018
     25 C          64.7316   83.2461   11.3297 C.3     1  UNL1        0.0216
     26 C          62.2509   82.9623   12.0475 C.3     1  UNL1        0.1703
     27 S          62.2117   81.7192   12.8861 S.O2    1  UNL1       -0.0115
     28 O          62.4528   80.8860   11.6623 O.2     1  UNL1       -0.1730
     29 O          61.9706   82.5524   14.1099 O.2     1  UNL1       -0.1730
     30 C          62.1725   80.4762   13.7247 C.3     1  UNL1        0.1108
     31 C          60.6899   80.6341   13.8894 C.3     1  UNL1        0.0236
     32 C          63.6550   80.3182   13.5599 C.3     1  UNL1        0.0236
     33 C          62.1332   79.2331   14.5633 C.3     1  UNL1        0.0236
     34 C          64.3904   87.8484   15.5473 C.3     1  UNL1        0.0757
     35 C          63.2926   88.2982   16.4653 C.2     1  UNL1        0.1805
     36 O          62.7380   89.6869   16.3472 O.2     1  UNL1       -0.2934
     37 C          62.7495   87.3593   17.5014 C.3     1  UNL1        0.2019
     38 O          61.6314   86.4223   17.1521 O.3     1  UNL1       -0.3750
     39 H          60.8296   86.9332   16.9597 H       1  UNL1        0.2110
@<TRIPOS>BOND
     1    24    25    1
     2    23    25    1
     3    23    26    1
     4    26    27    1
     5    27    28    2
     6    27    29    2
     7    27    30    1
     8    30    31    1
     9    30    32    1
    10    30    33    1
    11    23     1    1
    12     1     2   am
    13     2     3    2
    14     2     4    1
    15     4     5    1
    16     4    34    1
    17    34    35    1
    18    35    36    2
    19    35    37    1
    20    37    38    1
    21     4     6    1
    22     6     7    1
    23     7     9    1
    24     9    10   ar
    25    10    11   ar
    26    11    12   ar
    27    12    13   ar
    28    13    14    1
    29    13    15   ar
    30     7     8    1
    31     8    16    1
    32    16    17   ar
    33    17    18   ar
    34    18    19   ar
    35    19    20    1
    36    19    21   ar
    37    21    22   ar
    38     8     1    1
    39    22    16   ar
    40    15     9   ar
    41    38    39    1
@<TRIPOS>MOLECULE
*****
 39 41 0 0 0
SMALL
GASTEIGER

@<TRIPOS>ATOM
      1 N          59.7070   94.1238   -0.7765 N.am    1  UNL1       -0.2770
      2 C          60.2328   93.6489    0.5456 C.2     1  UNL1        0.2253
      3 O          59.2935   93.4466    1.6975 O.2     1  UNL1       -0.2749
      4 C          61.6980   93.3763    0.7160 C.3     1  UNL1        0.0764
      5 C          61.2084   93.0386    2.0930 C.3     1  UNL1        0.0095
      6 C          62.6373   93.5785   -0.4358 C.3     1  UNL1        0.0154
      7 C          62.1116   94.0534   -1.7579 C.3     1  UNL1        0.0452
      8 C          60.6464   94.3260   -1.9282 C.3     1  UNL1        0.1018
      9 C          63.0509   94.2557   -2.9098 C.ar    1  UNL1       -0.0197
     10 C          63.5891   95.6238   -3.2073 C.ar    1  UNL1       -0.0042
     11 C          64.5285   95.8261   -4.3592 C.ar    1  UNL1        0.0005
     12 C          64.9296   94.6602   -5.2135 C.ar    1  UNL1        0.0114
     13 C          64.3914   93.2920   -4.9159 C.ar    1  UNL1        0.0574
     14 CL         64.7925   92.1261   -5.7702 Cl      1  UNL1       -0.0823
     15 C          63.4521   93.0898   -3.7641 C.ar    1  UNL1        0.0072
     16 C          60.1206   94.8009   -3.2504 C.ar    1  UNL1       -0.0039
     17 C          59.8813   96.2637   -3.4807 C.ar    1  UNL1       -0.0018
     18 C          59.3556   96.7386   -4.8028 C.ar    1  UNL1        0.0111
     19 C          59.0691   95.7507   -5.8947 C.ar    1  UNL1        0.0577
     20 CL         58.5434   96.2257   -7.2168 Cl      1  UNL1       -0.0822
     21 C          59.3085   94.2880   -5.6644 C.ar    1  UNL1        0.0111
     22 C          59.8342   93.8131   -4.3422 C.ar    1  UNL1       -0.0018
     23 C          58.2419   94.3964   -0.9468 C.3     1  UNL1        0.0991
     24 C          58.5496   96.8549   -0.1651 C.3     1  UNL1        0.0018
     25 C          57.7223   95.7991   -0.8366 C.3     1  UNL1        0.0216
     26 C          57.2964   93.2662   -1.2273 C.3     1  UNL1        0.1703
     27 S          56.8124   93.0229   -2.6261 S.O2    1  UNL1       -0.0115
     28 O          57.9264   92.0415   -2.8407 O.2     1  UNL1       -0.1730
     29 O          55.6985   94.0042   -2.4114 O.2     1  UNL1       -0.1730
     30 C          56.3285   92.7795   -4.0248 C.3     1  UNL1        0.1108
     31 C          55.9717   94.2307   -4.1539 C.3     1  UNL1        0.0236
     32 C          56.6854   91.3283   -3.8958 C.3     1  UNL1        0.0236
     33 C          55.8446   92.5361   -5.4236 C.3     1  UNL1        0.0236
     34 C          62.9931   92.9864    1.3646 C.3     1  UNL1        0.0757
     35 C          64.0637   94.0148    1.5795 C.2     1  UNL1        0.1805
     36 O          63.7422   95.2940    2.2938 O.2     1  UNL1       -0.2934
     37 C          65.4557   93.7640    1.0802 C.3     1  UNL1        0.2019
     38 O          65.7699   92.4984    0.3389 O.3     1  UNL1       -0.3750
     39 H          65.6731   91.7408    0.9370 H       1  UNL1        0.2110
@<TRIPOS>BOND
     1    24    25    1
     2    23    25    1
     3    23    26    1
     4    26    27    1
     5    27    28    2
     6    27    29    2
     7    27    30    1
     8    30    31    1
     9    30    32    1
    10    30    33    1
    11    23     1    1
    12     1     2   am
    13     2     3    2
    14     2     4    1
    15     4     5    1
    16     4    34    1
    17    34    35    1
    18    35    36    2
    19    35    37    1
    20    37    38    1
    21     4     6    1
    22     6     7    1
    23     7     9    1
    24     9    10   ar
    25    10    11   ar
    26    11    12   ar
    27    12    13   ar
    28    13    14    1
    29    13    15   ar
    30     7     8    1
    31     8    16    1
    32    16    17   ar
    33    17    18   ar
    34    18    19   ar
    35    19    20    1
    36    19    21   ar
    37    21    22   ar
    38     8     1    1
    39    22    16   ar
    40    15     9   ar
    41    38    39    1
@<TRIPOS>MOLECULE
*****
 39 41 0 0 0
SMALL
GASTEIGER

@<TRIPOS>ATOM
      1 N          63.0807   90.1851   11.9270 N.am    1  UNL1       -0.2770
      2 C          63.2855   91.0405   10.7121 C.2     1  UNL1        0.2253
      3 O          62.4771   90.7901    9.4735 O.2     1  UNL1       -0.2749
      4 C          64.2986   92.1464   10.7356 C.3     1  UNL1        0.0764
      5 C          63.7795   92.2984    9.3365 C.3     1  UNL1        0.0095
      6 C          65.1069   92.3969   11.9740 C.3     1  UNL1        0.0154
      7 C          64.9021   91.5415   13.1890 C.3     1  UNL1        0.0452
      8 C          63.8890   90.4356   13.1655 C.3     1  UNL1        0.1018
      9 C          65.7105   91.7919   14.4275 C.ar    1  UNL1       -0.0197
     10 C          65.0204   92.0531   15.7335 C.ar    1  UNL1       -0.0042
     11 C          65.8287   92.3035   16.9720 C.ar    1  UNL1        0.0005
     12 C          67.3272   92.2927   16.9046 C.ar    1  UNL1        0.0114
     13 C          68.0173   92.0315   15.5985 C.ar    1  UNL1        0.0574
     14 CL         69.5157   92.0206   15.5311 Cl      1  UNL1       -0.0823
     15 C          67.2089   91.7811   14.3601 C.ar    1  UNL1        0.0072
     16 C          63.6842   89.5801   14.3806 C.ar    1  UNL1       -0.0039
     17 C          62.8599   90.0890   15.5258 C.ar    1  UNL1       -0.0018
     18 C          62.6551   89.2336   16.7408 C.ar    1  UNL1        0.0111
     19 C          63.2746   87.8692   16.8107 C.ar    1  UNL1        0.0577
     20 CL         63.0698   87.0139   18.0257 Cl      1  UNL1       -0.0822
     21 C          64.0989   87.3603   15.6654 C.ar    1  UNL1        0.0111
     22 C          64.3037   88.2158   14.4504 C.ar    1  UNL1       -0.0018
     23 C          62.0675   89.0792   11.9036 C.3     1  UNL1        0.0991
     24 C          59.7830   90.2446   11.4880 C.3     1  UNL1        0.0018
     25 C          60.6523   89.3496   12.3206 C.3     1  UNL1        0.0216
     26 C          62.4696   87.7029   11.4630 C.3     1  UNL1        0.1703
     27 S          61.8399   87.0908   10.2470 S.O2    1  UNL1       -0.0115
     28 O          62.6828   87.9675    9.3691 O.2     1  UNL1       -0.1730
     29 O          60.9969   86.2141   11.1249 O.2     1  UNL1       -0.1730
     30 C          61.2101   86.4786    9.0310 C.3     1  UNL1        0.1108
     31 C          59.9336   87.2100    9.3239 C.3     1  UNL1        0.0236
     32 C          62.4865   85.7472    8.7381 C.3     1  UNL1        0.0236
     33 C          60.5803   85.8664    7.8150 C.3     1  UNL1        0.0236
     34 C          65.1314   93.3051   10.2731 C.3     1  UNL1        0.0757
     35 C          66.5896   93.3664   10.6199 C.2     1  UNL1        0.1805
     36 O          67.0928   94.4198   11.5616 O.2     1  UNL1       -0.2934
     37 C          67.5443   92.3742   10.0249 C.3     1  UNL1        0.2019
     38 O          69.0135   92.6749    9.9902 O.3     1  UNL1       -0.3750
     39 H          69.1754   93.4288    9.4018 H       1  UNL1        0.2110
@<TRIPOS>BOND
     1    24    25    1
     2    23    25    1
     3    23    26    1
     4    26    27    1
     5    27    28    2
     6    27    29    2
     7    27    30    1
     8    30    31    1
     9    30    32    1
    10    30    33    1
    11    23     1    1
    12     1     2   am
    13     2     3    2
    14     2     4    1
    15     4     5    1
    16     4    34    1
    17    34    35    1
    18    35    36    2
    19    35    37    1
    20    37    38    1
    21     4     6    1
    22     6     7    1
    23     7     9    1
    24     9    10   ar
    25    10    11   ar
    26    11    12   ar
    27    12    13   ar
    28    13    14    1
    29    13    15   ar
    30     7     8    1
    31     8    16    1
    32    16    17   ar
    33    17    18   ar
    34    18    19   ar
    35    19    20    1
    36    19    21   ar
    37    21    22   ar
    38     8     1    1
    39    22    16   ar
    40    15     9   ar
    41    38    39    1
@<TRIPOS>MOLECULE
*****
 39 41 0 0 0
SMALL
GASTEIGER

@<TRIPOS>ATOM
      1 N          63.7124   86.0731   13.2021 N.am    1  UNL1       -0.2770
      2 C          63.6745   87.5024   13.6556 C.2     1  UNL1        0.2253
      3 O          64.2320   87.8789   14.9963 O.2     1  UNL1       -0.2749
      4 C          63.0789   88.5552   12.7685 C.3     1  UNL1        0.0764
      5 C          63.4778   89.3991   13.9427 C.3     1  UNL1        0.0095
      6 C          62.5214   88.1787   11.4279 C.3     1  UNL1        0.0154
      7 C          62.5594   86.7495   10.9743 C.3     1  UNL1        0.0452
      8 C          63.1549   85.6967   11.8615 C.3     1  UNL1        0.1018
      9 C          62.0018   86.3729    9.6336 C.ar    1  UNL1       -0.0197
     10 C          62.8548   85.6302    8.6484 C.ar    1  UNL1       -0.0042
     11 C          62.2972   85.2537    7.3077 C.ar    1  UNL1        0.0005
     12 C          60.8867   85.6199    6.9523 C.ar    1  UNL1        0.0114
     13 C          60.0337   86.3626    7.9377 C.ar    1  UNL1        0.0574
     14 CL         58.6232   86.7289    7.5823 Cl      1  UNL1       -0.0823
     15 C          60.5913   86.7391    9.2783 C.ar    1  UNL1        0.0072
     16 C          63.1928   84.2673   11.4079 C.ar    1  UNL1       -0.0039
     17 C          61.9586   83.4195   11.4959 C.ar    1  UNL1       -0.0018
     18 C          61.9965   81.9903   11.0424 C.ar    1  UNL1        0.0111
     19 C          63.2687   81.4088   10.5007 C.ar    1  UNL1        0.0577
     20 CL         63.3066   79.9795   10.0472 Cl      1  UNL1       -0.0822
     21 C          64.5030   82.2566   10.4127 C.ar    1  UNL1        0.0111
     22 C          64.4651   83.6859   10.8663 C.ar    1  UNL1       -0.0018
     23 C          64.3080   85.0203   14.0892 C.3     1  UNL1        0.0991
     24 C          66.6499   85.5589   15.0766 C.3     1  UNL1        0.0018
     25 C          65.7922   84.8043   14.1046 C.3     1  UNL1        0.0216
     26 C          63.4192   84.1836   14.9610 C.3     1  UNL1        0.1703
     27 S          63.1029   82.7699   14.5721 S.O2    1  UNL1       -0.0115
     28 O          64.5396   82.5505   14.2009 O.2     1  UNL1       -0.1730
     29 O          61.6662   82.9892   14.9432 O.2     1  UNL1       -0.1730
     30 C          62.7866   81.3561   14.1831 C.3     1  UNL1        0.1108
     31 C          61.3353   81.6012   14.4724 C.3     1  UNL1        0.0236
     32 C          64.2379   81.1110   13.8938 C.3     1  UNL1        0.0236
     33 C          62.4703   79.9424   13.7942 C.3     1  UNL1        0.0236
     34 C          62.6219   89.9011   12.2892 C.3     1  UNL1        0.0757
     35 C          63.6172   91.0071   12.0991 C.2     1  UNL1        0.1805
     36 O          64.2367   91.6720   13.2925 O.2     1  UNL1       -0.2934
     37 C          63.9930   91.4483   10.7156 C.3     1  UNL1        0.2019
     38 O          62.9415   91.5568    9.6514 O.3     1  UNL1       -0.3750
     39 H          62.5920   90.6744    9.4511 H       1  UNL1        0.2110
@<TRIPOS>BOND
     1    24    25    1
     2    23    25    1
     3    23    26    1
     4    26    27    1
     5    27    28    2
     6    27    29    2
     7    27    30    1
     8    30    31    1
     9    30    32    1
    10    30    33    1
    11    23     1    1
    12     1     2   am
    13     2     3    2
    14     2     4    1
    15     4     5    1
    16     4    34    1
    17    34    35    1
    18    35    36    2
    19    35    37    1
    20    37    38    1
    21     4     6    1
    22     6     7    1
    23     7     9    1
    24     9    10   ar
    25    10    11   ar
    26    11    12   ar
    27    12    13   ar
    28    13    14    1
    29    13    15   ar
    30     7     8    1
    31     8    16    1
    32    16    17   ar
    33    17    18   ar
    34    18    19   ar
    35    19    20    1
    36    19    21   ar
    37    21    22   ar
    38     8     1    1
    39    22    16   ar
    40    15     9   ar
    41    38    39    1
@<TRIPOS>MOLECULE
*****
 39 41 0 0 0
SMALL
GASTEIGER

@<TRIPOS>ATOM
      1 N          62.7275   88.1820   12.3667 N.am    1  UNL1       -0.2770
      2 C          63.2881   88.4722   13.7274 C.2     1  UNL1        0.2253
      3 O          63.3045   89.8791   14.2475 O.2     1  UNL1       -0.2749
      4 C          63.8324   87.3555   14.5681 C.3     1  UNL1        0.0764
      5 C          64.0660   88.5143   15.4914 C.3     1  UNL1        0.0095
      6 C          63.8161   85.9486   14.0481 C.3     1  UNL1        0.0154
      7 C          63.2555   85.6585   12.6874 C.3     1  UNL1        0.0452
      8 C          62.7112   86.7752   11.8468 C.3     1  UNL1        0.1018
      9 C          63.2391   84.2516   12.1674 C.ar    1  UNL1       -0.0197
     10 C          63.9357   83.9192   10.8812 C.ar    1  UNL1       -0.0042
     11 C          63.9193   82.5123   10.3612 C.ar    1  UNL1        0.0005
     12 C          63.2063   81.4378   11.1273 C.ar    1  UNL1        0.0114
     13 C          62.5097   81.7702   12.4136 C.ar    1  UNL1        0.0574
     14 CL         61.7967   80.6956   13.1797 Cl      1  UNL1       -0.0823
     15 C          62.5261   83.1770   12.9336 C.ar    1  UNL1        0.0072
     16 C          62.1505   86.4849   10.4860 C.ar    1  UNL1       -0.0039
     17 C          63.0641   86.0681    9.3717 C.ar    1  UNL1       -0.0018
     18 C          62.5035   85.7779    8.0111 C.ar    1  UNL1        0.0111
     19 C          61.0293   85.9045    7.7646 C.ar    1  UNL1        0.0577
     20 CL         60.4687   85.6143    6.4040 Cl      1  UNL1       -0.0822
     21 C          60.1157   86.3213    8.8789 C.ar    1  UNL1        0.0111
     22 C          60.6763   86.6115   10.2397 C.ar    1  UNL1       -0.0018
     23 C          62.1832   89.2987   11.5261 C.3     1  UNL1        0.0991
     24 C          60.0041   90.2713   10.4987 C.3     1  UNL1        0.0018
     25 C          60.7523   89.7225   11.6773 C.3     1  UNL1        0.0216
     26 C          63.0698   89.9916   10.5342 C.3     1  UNL1        0.1703
     27 S          63.9241   91.1452   10.9695 S.O2    1  UNL1       -0.0115
     28 O          64.4841   90.3104   12.0828 O.2     1  UNL1       -0.1730
     29 O          63.3641   91.9800    9.8561 O.2     1  UNL1       -0.1730
     30 C          64.7784   92.2987   11.4047 C.3     1  UNL1        0.1108
     31 C          64.8757   91.7078   12.7799 C.3     1  UNL1        0.0236
     32 C          64.6811   92.8897   10.0294 C.3     1  UNL1        0.0236
     33 C          65.6327   93.4523   11.8399 C.3     1  UNL1        0.0236
     34 C          64.4579   86.6413   15.7295 C.3     1  UNL1        0.0757
     35 C          63.6782   85.6017   16.4786 C.2     1  UNL1        0.1805
     36 O          63.8694   84.1480   16.1619 O.2     1  UNL1       -0.2934
     37 C          62.7073   86.0156   17.5444 C.3     1  UNL1        0.2019
     38 O          61.2963   86.3687   17.1775 O.3     1  UNL1       -0.3750
     39 H          61.2948   87.1730   16.6353 H       1  UNL1        0.2110
@<TRIPOS>BOND
     1    24    25    1
     2    23    25    1
     3    23    26    1
     4    26    27    1
     5    27    28    2
     6    27    29    2
     7    27    30    1
     8    30    31    1
     9    30    32    1
    10    30    33    1
    11    23     1    1
    12     1     2   am
    13     2     3    2
    14     2     4    1
    15     4     5    1
    16     4    34    1
    17    34    35    1
    18    35    36    2
    19    35    37    1
    20    37    38    1
    21     4     6    1
    22     6     7    1
    23     7     9    1
    24     9    10   ar
    25    10    11   ar
    26    11    12   ar
    27    12    13   ar
    28    13    14    1
    29    13    15   ar
    30     7     8    1
    31     8    16    1
    32    16    17   ar
    33    17    18   ar
    34    18    19   ar
    35    19    20    1
    36    19    21   ar
    37    21    22   ar
    38     8     1    1
    39    22    16   ar
    40    15     9   ar
    41    38    39    1
@<TRIPOS>MOLECULE
*****
 39 41 0 0 0
SMALL
GASTEIGER

@<TRIPOS>ATOM
      1 N          63.7080   85.8843   13.1787 N.am    1  UNL1       -0.2770
      2 C          63.7361   87.3357   13.5562 C.2     1  UNL1        0.2253
      3 O          64.2729   87.7526   14.8934 O.2     1  UNL1       -0.2749
      4 C          63.2274   88.3703   12.5966 C.3     1  UNL1        0.0764
      5 C          63.6369   89.2529   13.7382 C.3     1  UNL1        0.0095
      6 C          62.6905   87.9534   11.2595 C.3     1  UNL1        0.0154
      7 C          62.6624   86.5020   10.8819 C.3     1  UNL1        0.0452
      8 C          63.1711   85.4675   11.8415 C.3     1  UNL1        0.1018
      9 C          62.1256   86.0851    9.5447 C.ar    1  UNL1       -0.0197
     10 C          62.9996   85.3297    8.5880 C.ar    1  UNL1       -0.0042
     11 C          62.4628   84.9128    7.2508 C.ar    1  UNL1        0.0005
     12 C          61.0519   85.2514    6.8704 C.ar    1  UNL1        0.0114
     13 C          60.1778   86.0068    7.8272 C.ar    1  UNL1        0.0574
     14 CL         58.7669   86.3454    7.4468 Cl      1  UNL1       -0.0823
     15 C          60.7147   86.4237    9.1643 C.ar    1  UNL1        0.0072
     16 C          63.1430   84.0160   11.4639 C.ar    1  UNL1       -0.0039
     17 C          64.0940   83.4917   10.4292 C.ar    1  UNL1       -0.0018
     18 C          64.0659   82.0403   10.0515 C.ar    1  UNL1        0.0111
     19 C          63.0868   81.1131   10.7087 C.ar    1  UNL1        0.0577
     20 CL         63.0587   79.6617   10.3311 Cl      1  UNL1       -0.0822
     21 C          62.1358   81.6374   11.7435 C.ar    1  UNL1        0.0111
     22 C          62.1640   83.0889   12.1211 C.ar    1  UNL1       -0.0018
     23 C          64.2167   84.8497   14.1383 C.3     1  UNL1        0.0991
     24 C          66.7628   85.0364   14.6204 C.3     1  UNL1        0.0018
     25 C          65.6093   84.3118   13.9925 C.3     1  UNL1        0.0216
     26 C          63.3328   84.3531   15.2438 C.3     1  UNL1        0.1703
     27 S          62.9533   85.2689   16.3695 S.O2    1  UNL1       -0.0115
     28 O          64.3825   85.3028   16.8237 O.2     1  UNL1       -0.1730
     29 O          61.5242   85.2351   15.9152 O.2     1  UNL1       -0.1730
     30 C          62.5738   86.1847   17.4952 C.3     1  UNL1        0.1108
     31 C          61.2275   86.3967   16.8688 C.3     1  UNL1        0.0236
     32 C          63.9202   85.9728   18.1215 C.3     1  UNL1        0.0236
     33 C          62.1943   87.1006   18.6209 C.3     1  UNL1        0.0236
     34 C          62.8609   89.7114   12.0335 C.3     1  UNL1        0.0757
     35 C          61.4241   90.0411   11.7560 C.2     1  UNL1        0.1805
     36 O          60.3621   89.6556   12.7427 O.2     1  UNL1       -0.2934
     37 C          61.0494   90.7562   10.4919 C.3     1  UNL1        0.2019
     38 O          60.5017   89.9847    9.3278 O.3     1  UNL1       -0.3750
     39 H          61.1869   89.3917    8.9818 H       1  UNL1        0.2110
@<TRIPOS>BOND
     1    24    25    1
     2    23    25    1
     3    23    26    1
     4    26    27    1
     5    27    28    2
     6    27    29    2
     7    27    30    1
     8    30    31    1
     9    30    32    1
    10    30    33    1
    11    23     1    1
    12     1     2   am
    13     2     3    2
    14     2     4    1
    15     4     5    1
    16     4    34    1
    17    34    35    1
    18    35    36    2
    19    35    37    1
    20    37    38    1
    21     4     6    1
    22     6     7    1
    23     7     9    1
    24     9    10   ar
    25    10    11   ar
    26    11    12   ar
    27    12    13   ar
    28    13    14    1
    29    13    15   ar
    30     7     8    1
    31     8    16    1
    32    16    17   ar
    33    17    18   ar
    34    18    19   ar
    35    19    20    1
    36    19    21   ar
    37    21    22   ar
    38     8     1    1
    39    22    16   ar
    40    15     9   ar
    41    38    39    1
@<TRIPOS>MOLECULE
*****
 39 41 0 0 0
SMALL
GASTEIGER

@<TRIPOS>ATOM
      1 N          63.0047   88.0796   11.6166 N.am    1  UNL1       -0.2770
      2 C          63.5060   88.5359   12.9547 C.2     1  UNL1        0.2253
      3 O          63.5944   90.0013   13.2626 O.2     1  UNL1       -0.2749
      4 C          63.9190   87.5268   13.9849 C.3     1  UNL1        0.0764
      5 C          64.1825   88.7947   14.7418 C.3     1  UNL1        0.0095
      6 C          63.8306   86.0615   13.6770 C.3     1  UNL1        0.0154
      7 C          63.3294   85.6051   12.3390 C.3     1  UNL1        0.0452
      8 C          62.9164   86.6142   11.3088 C.3     1  UNL1        0.1018
      9 C          63.2410   84.1397   12.0310 C.ar    1  UNL1       -0.0197
     10 C          63.9390   83.5832   10.8256 C.ar    1  UNL1       -0.0042
     11 C          63.8506   82.1178   10.5177 C.ar    1  UNL1        0.0005
     12 C          63.0643   81.2089   11.4153 C.ar    1  UNL1        0.0114
     13 C          62.3664   81.7654   12.6208 C.ar    1  UNL1        0.0574
     14 CL         61.5801   80.8566   13.5184 Cl      1  UNL1       -0.0823
     15 C          62.4547   83.2308   12.9286 C.ar    1  UNL1        0.0072
     16 C          62.4151   86.1578    9.9707 C.ar    1  UNL1       -0.0039
     17 C          60.9409   86.1143    9.6970 C.ar    1  UNL1       -0.0018
     18 C          60.4396   85.6579    8.3590 C.ar    1  UNL1        0.0111
     19 C          61.4125   85.2450    7.2945 C.ar    1  UNL1        0.0577
     20 CL         60.9112   84.7886    5.9565 Cl      1  UNL1       -0.0822
     21 C          62.8867   85.2885    7.5681 C.ar    1  UNL1        0.0111
     22 C          63.3880   85.7449    8.9062 C.ar    1  UNL1       -0.0018
     23 C          62.5918   89.0886   10.5864 C.3     1  UNL1        0.0991
     24 C          63.5244   91.4740   10.1503 C.3     1  UNL1        0.0018
     25 C          63.6181   89.9885    9.9644 C.3     1  UNL1        0.0216
     26 C          61.1526   89.1978   10.1783 C.3     1  UNL1        0.1703
     27 S          60.0754   89.2054   11.2222 S.O2    1  UNL1       -0.0115
     28 O          59.4578   87.9915   10.5936 O.2     1  UNL1       -0.1730
     29 O          60.6931   90.4192   11.8507 O.2     1  UNL1       -0.1730
     30 C          58.9983   89.2129   12.2660 C.3     1  UNL1        0.1108
     31 C          58.6389   90.6185   11.8850 C.3     1  UNL1        0.0236
     32 C          59.3577   87.8074   12.6471 C.3     1  UNL1        0.0236
     33 C          57.9211   89.2205   13.3099 C.3     1  UNL1        0.0236
     34 C          64.4234   86.9582   15.2780 C.3     1  UNL1        0.0757
     35 C          63.5547   86.0362   16.0814 C.2     1  UNL1        0.1805
     36 O          63.5570   84.5639   15.7945 O.2     1  UNL1       -0.2934
     37 C          62.6839   86.5866   17.1716 C.3     1  UNL1        0.2019
     38 O          61.1973   86.3953   17.1126 O.3     1  UNL1       -0.3750
     39 H          60.8382   86.8842   16.3557 H       1  UNL1        0.2110
@<TRIPOS>BOND
     1    24    25    1
     2    23    25    1
     3    23    26    1
     4    26    27    1
     5    27    28    2
     6    27    29    2
     7    27    30    1
     8    30    31    1
     9    30    32    1
    10    30    33    1
    11    23     1    1
    12     1     2   am
    13     2     3    2
    14     2     4    1
    15     4     5    1
    16     4    34    1
    17    34    35    1
    18    35    36    2
    19    35    37    1
    20    37    38    1
    21     4     6    1
    22     6     7    1
    23     7     9    1
    24     9    10   ar
    25    10    11   ar
    26    11    12   ar
    27    12    13   ar
    28    13    14    1
    29    13    15   ar
    30     7     8    1
    31     8    16    1
    32    16    17   ar
    33    17    18   ar
    34    18    19   ar
    35    19    20    1
    36    19    21   ar
    37    21    22   ar
    38     8     1    1
    39    22    16   ar
    40    15     9   ar
    41    38    39    1
