@<TRIPOS>MOLECULE
*****
 37 41 0 0 0
SMALL
GASTEIGER

@<TRIPOS>ATOM
      1 N          59.5725   90.2936    6.4057 N.3     1  UNL1       -0.2750
      2 C          58.9920   88.9283    6.6268 C.3     1  UNL1        0.0737
      3 C          59.3579   88.1476    7.8543 C.3     1  UNL1        0.0374
      4 C          60.3043   88.7322    8.8605 C.3     1  UNL1        0.0800
      5 C          60.8848   90.0974    8.6394 C.3     1  UNL1        0.0374
      6 C          60.5190   90.8782    7.4120 C.3     1  UNL1        0.0737
      7 C          61.1680   93.3613    1.8357 C.2     1  UNL1        0.2542
      8 O          62.6625   93.4773    1.7823 O.2     1  UNL1       -0.2697
      9 N          60.5142   92.5990    2.9499 N.am    1  UNL1       -0.2758
     10 C          61.3550   91.9527    4.0108 C.3     1  UNL1        0.0951
     11 C          60.7012   91.1904    5.1249 C.3     1  UNL1        0.0362
     12 C          59.2067   91.0743    5.1783 C.3     1  UNL1        0.0487
     13 C          57.8392   90.6871    5.6579 C.3     1  UNL1        0.0161
     14 C          58.3659   91.7206    4.1174 C.3     1  UNL1        0.0362
     15 C          59.0197   92.4829    3.0032 C.3     1  UNL1        0.0951
     16 C          60.3763   96.2431    2.0977 C.3     1  UNL1        0.0316
     17 C          59.9314   95.4484    0.9058 C.ar    1  UNL1       -0.0058
     18 C          59.0907   96.0947   -0.1551 C.ar    1  UNL1        0.0730
     19 C          58.6457   95.3000   -1.3470 C.ar    1  UNL1        0.3010
     20 N          59.0416   93.8592   -1.4780 N.ar    1  UNL1       -0.1606
     21 O          58.5966   93.0646   -2.6699 O.co2   1  UNL1       -0.6190
     22 C          59.8823   93.2130   -0.4171 C.ar    1  UNL1        0.2180
     23 C          60.2782   91.7720   -0.5481 C.3     1  UNL1        0.1093
     24 C          60.3272   94.0076    0.7748 C.ar    1  UNL1        0.1099
     25 N          60.6702   87.9514   10.0880 N.pl3   1  UNL1       -0.2872
     26 C          61.5141   86.7172    9.9680 C.ar    1  UNL1        0.0516
     27 C          62.2232   86.4157    8.6810 C.ar    1  UNL1        0.0148
     28 C          63.0671   85.1815    8.5609 C.ar    1  UNL1        0.0013
     29 C          63.2020   84.2487    9.7278 C.ar    1  UNL1        0.0001
     30 C          62.4930   84.5502   11.0148 C.ar    1  UNL1        0.0013
     31 C          61.6490   85.7844   11.1349 C.ar    1  UNL1        0.0148
     32 C          60.1921   88.4050   11.4355 C.ar    1  UNL1        0.0710
     33 C          58.7571   88.2109   11.8265 C.ar    1  UNL1        0.0180
     34 C          58.2790   88.6645   13.1740 C.ar    1  UNL1        0.0220
     35 C          59.2360   89.3120   14.1305 C.ar    1  UNL1        0.0990
     36 N          60.6710   89.5060   13.7395 N.ar    1  UNL1       -0.2410
     37 C          61.1491   89.0525   12.3919 C.ar    1  UNL1        0.1136
@<TRIPOS>UNITY_ATOM_ATTR
20 1
charge 1
21 1
charge -1
@<TRIPOS>BOND
     1    16    17    1
     2    17    18   ar
     3    18    19   ar
     4    19    20   ar
     5    20    21    1
     6    20    22   ar
     7    22    23    1
     8    22    24   ar
     9    24     7    1
    10     7     8    2
    11     7     9   am
    12     9    10    1
    13    10    11    1
    14    11    12    1
    15    12    13    1
    16    12     1    1
    17     1     2    1
    18     2     3    1
    19     3     4    1
    20     4    25    1
    21    25    26    1
    22    26    27   ar
    23    27    28   ar
    24    28    29   ar
    25    29    30   ar
    26    30    31   ar
    27    25    32    1
    28    32    33   ar
    29    33    34   ar
    30    34    35   ar
    31    35    36   ar
    32    36    37   ar
    33     4     5    1
    34     5     6    1
    35    12    14    1
    36    14    15    1
    37    24    17   ar
    38    15     9    1
    39     6     1    1
    40    31    26   ar
    41    37    32   ar
@<TRIPOS>MOLECULE
*****
 37 41 0 0 0
SMALL
GASTEIGER

@<TRIPOS>ATOM
      1 N          59.8653   91.0714    5.0344 N.3     1  UNL1       -0.2750
      2 C          61.2081   91.0070    5.6995 C.3     1  UNL1        0.0737
      3 C          61.4094   90.1301    6.8997 C.3     1  UNL1        0.0374
      4 C          60.2676   89.3176    7.4347 C.3     1  UNL1        0.0800
      5 C          58.9248   89.3819    6.7696 C.3     1  UNL1        0.0374
      6 C          58.7235   90.2589    5.5694 C.3     1  UNL1        0.0737
      7 C          61.9784   93.6061    0.3492 C.2     1  UNL1        0.2542
      8 O          63.4315   93.2712    0.1864 O.2     1  UNL1       -0.2697
      9 N          61.2070   93.0536    1.5108 N.am    1  UNL1       -0.2758
     10 C          61.8886   92.1661    2.5098 C.3     1  UNL1        0.0951
     11 C          61.1171   91.6135    3.6714 C.3     1  UNL1        0.0362
     12 C          59.6640   91.9484    3.8342 C.3     1  UNL1        0.0487
     13 C          58.2809   91.9787    4.4137 C.3     1  UNL1        0.0161
     14 C          58.9824   92.8358    2.8353 C.3     1  UNL1        0.0362
     15 C          59.7539   93.3884    1.6736 C.3     1  UNL1        0.0951
     16 C          62.5406   96.5529    0.3311 C.3     1  UNL1        0.0316
     17 C          61.5780   95.9670   -0.6588 C.ar    1  UNL1       -0.0058
     18 C          60.8964   96.8544   -1.6577 C.ar    1  UNL1        0.0730
     19 C          59.9337   96.2685   -2.6477 C.ar    1  UNL1        0.3010
     20 N          59.6526   94.7951   -2.6387 N.ar    1  UNL1       -0.1606
     21 O          58.6900   94.2091   -3.6286 O.co2   1  UNL1       -0.6190
     22 C          60.3342   93.9077   -1.6397 C.ar    1  UNL1        0.2180
     23 C          60.0531   92.4342   -1.6307 C.3     1  UNL1        0.1093
     24 C          61.2969   94.4936   -0.6498 C.ar    1  UNL1        0.1099
     25 N          60.4689   88.4406    8.6349 N.pl3   1  UNL1       -0.2872
     26 C          61.1356   87.1053    8.4850 C.ar    1  UNL1        0.0516
     27 C          60.6116   86.1130    7.4896 C.ar    1  UNL1        0.0148
     28 C          61.2783   84.7777    7.3396 C.ar    1  UNL1        0.0013
     29 C          62.4690   84.4347    8.1849 C.ar    1  UNL1        0.0001
     30 C          62.9930   85.4271    9.1802 C.ar    1  UNL1        0.0013
     31 C          62.3263   86.7623    9.3303 C.ar    1  UNL1        0.0148
     32 C          60.0033   88.8990    9.9852 C.ar    1  UNL1        0.0710
     33 C          59.7783   90.3590   10.2452 C.ar    1  UNL1        0.0180
     34 C          59.3128   90.8174   11.5955 C.ar    1  UNL1        0.0220
     35 C          59.0723   89.8157   12.6857 C.ar    1  UNL1        0.0990
     36 N          59.2973   88.3557   12.4258 N.ar    1  UNL1       -0.2410
     37 C          59.7629   87.8973   11.0755 C.ar    1  UNL1        0.1136
@<TRIPOS>UNITY_ATOM_ATTR
20 1
charge 1
21 1
charge -1
@<TRIPOS>BOND
     1    16    17    1
     2    17    18   ar
     3    18    19   ar
     4    19    20   ar
     5    20    21    1
     6    20    22   ar
     7    22    23    1
     8    22    24   ar
     9    24     7    1
    10     7     8    2
    11     7     9   am
    12     9    10    1
    13    10    11    1
    14    11    12    1
    15    12    13    1
    16    12     1    1
    17     1     2    1
    18     2     3    1
    19     3     4    1
    20     4    25    1
    21    25    26    1
    22    26    27   ar
    23    27    28   ar
    24    28    29   ar
    25    29    30   ar
    26    30    31   ar
    27    25    32    1
    28    32    33   ar
    29    33    34   ar
    30    34    35   ar
    31    35    36   ar
    32    36    37   ar
    33     4     5    1
    34     5     6    1
    35    12    14    1
    36    14    15    1
    37    24    17   ar
    38    15     9    1
    39     6     1    1
    40    31    26   ar
    41    37    32   ar
@<TRIPOS>MOLECULE
*****
 37 41 0 0 0
SMALL
GASTEIGER

@<TRIPOS>ATOM
      1 N          60.4058   92.4654    2.6810 N.3     1  UNL1       -0.2750
      2 C          60.1628   93.9331    2.8726 C.3     1  UNL1        0.0737
      3 C          59.7402   94.7814    1.7099 C.3     1  UNL1        0.0374
      4 C          59.5606   94.1620    0.3556 C.3     1  UNL1        0.0800
      5 C          59.8036   92.6943    0.1640 C.3     1  UNL1        0.0374
      6 C          60.2262   91.8460    1.3267 C.3     1  UNL1        0.0737
      7 C          59.0241   89.1832    7.1709 C.2     1  UNL1        0.2542
      8 O          57.5333   89.0832    7.3036 O.2     1  UNL1       -0.2697
      9 N          59.6255   89.9945    6.0618 N.am    1  UNL1       -0.2758
     10 C          58.7362   90.7058    5.0854 C.3     1  UNL1        0.0951
     11 C          59.3376   91.5171    3.9764 C.3     1  UNL1        0.0362
     12 C          60.8284   91.6171    3.8436 C.3     1  UNL1        0.0487
     13 C          62.1724   92.0118    3.3071 C.3     1  UNL1        0.0161
     14 C          61.7177   90.9059    4.8199 C.3     1  UNL1        0.0362
     15 C          61.1163   90.0946    5.9291 C.3     1  UNL1        0.0951
     16 C          59.8392   86.3412    6.6626 C.3     1  UNL1        0.0316
     17 C          60.3209   87.0510    7.8931 C.ar    1  UNL1       -0.0058
     18 C          61.2102   86.3397    8.8695 C.ar    1  UNL1        0.0730
     19 C          61.6920   87.0495   10.0999 C.ar    1  UNL1        0.3010
     20 N          61.2845   88.4705   10.3541 N.ar    1  UNL1       -0.1606
     21 O          61.7663   89.1803   11.5845 O.co2   1  UNL1       -0.6190
     22 C          60.3952   89.1818    9.3777 C.ar    1  UNL1        0.2180
     23 C          59.9877   90.6028    9.6318 C.3     1  UNL1        0.1093
     24 C          59.9134   88.4720    8.1472 C.ar    1  UNL1        0.1099
     25 N          59.1380   95.0103   -0.8071 N.pl3   1  UNL1       -0.2872
     26 C          60.1727   95.6253   -1.7021 C.ar    1  UNL1        0.0516
     27 C          59.9739   95.6250   -3.1889 C.ar    1  UNL1        0.0148
     28 C          61.0085   96.2400   -4.0840 C.ar    1  UNL1        0.0013
     29 C          62.2420   96.8553   -3.4924 C.ar    1  UNL1        0.0001
     30 C          62.4408   96.8555   -2.0056 C.ar    1  UNL1        0.0013
     31 C          61.4062   96.2405   -1.1105 C.ar    1  UNL1        0.0148
     32 C          57.6806   95.2436   -1.0747 C.ar    1  UNL1        0.0710
     33 C          57.1024   96.6200   -0.9291 C.ar    1  UNL1        0.0180
     34 C          55.6449   96.8533   -1.1967 C.ar    1  UNL1        0.0220
     35 C          54.7659   95.7103   -1.6099 C.ar    1  UNL1        0.0990
     36 N          55.3442   94.3339   -1.7555 N.ar    1  UNL1       -0.2410
     37 C          56.8016   94.1006   -1.4879 C.ar    1  UNL1        0.1136
@<TRIPOS>UNITY_ATOM_ATTR
20 1
charge 1
21 1
charge -1
@<TRIPOS>BOND
     1    16    17    1
     2    17    18   ar
     3    18    19   ar
     4    19    20   ar
     5    20    21    1
     6    20    22   ar
     7    22    23    1
     8    22    24   ar
     9    24     7    1
    10     7     8    2
    11     7     9   am
    12     9    10    1
    13    10    11    1
    14    11    12    1
    15    12    13    1
    16    12     1    1
    17     1     2    1
    18     2     3    1
    19     3     4    1
    20     4    25    1
    21    25    26    1
    22    26    27   ar
    23    27    28   ar
    24    28    29   ar
    25    29    30   ar
    26    30    31   ar
    27    25    32    1
    28    32    33   ar
    29    33    34   ar
    30    34    35   ar
    31    35    36   ar
    32    36    37   ar
    33     4     5    1
    34     5     6    1
    35    12    14    1
    36    14    15    1
    37    24    17   ar
    38    15     9    1
    39     6     1    1
    40    31    26   ar
    41    37    32   ar
@<TRIPOS>MOLECULE
*****
 37 41 0 0 0
SMALL
GASTEIGER

@<TRIPOS>ATOM
      1 N          59.6093   90.3202    6.3349 N.3     1  UNL1       -0.2750
      2 C          60.5691   90.8867    7.3388 C.3     1  UNL1        0.0737
      3 C          60.9279   90.0965    8.5623 C.3     1  UNL1        0.0374
      4 C          60.3270   88.7397    8.7817 C.3     1  UNL1        0.0800
      5 C          59.3672   88.1732    7.7778 C.3     1  UNL1        0.0374
      6 C          59.0084   88.9634    6.5544 C.3     1  UNL1        0.0737
      7 C          61.2328   93.3833    1.7717 C.2     1  UNL1        0.2542
      8 O          62.7286   93.4794    1.7144 O.2     1  UNL1       -0.2697
      9 N          60.5720   92.6257    2.8849 N.am    1  UNL1       -0.2758
     10 C          61.4071   91.9641    3.9410 C.3     1  UNL1        0.0951
     11 C          60.7463   91.2065    5.0542 C.3     1  UNL1        0.0362
     12 C          59.2505   91.1104    5.1115 C.3     1  UNL1        0.0487
     13 C          57.8793   90.7399    5.5937 C.3     1  UNL1        0.0161
     14 C          58.4154   91.7719    4.0555 C.3     1  UNL1        0.0362
     15 C          59.0762   92.5295    2.9422 C.3     1  UNL1        0.0951
     16 C          60.3733   96.2377    2.1087 C.3     1  UNL1        0.0316
     17 C          59.9680   95.4720    0.8842 C.ar    1  UNL1       -0.0058
     18 C          59.1330   96.1335   -0.1718 C.ar    1  UNL1        0.0730
     19 C          58.7277   95.3678   -1.3963 C.ar    1  UNL1        0.3010
     20 N          59.1574   93.9406   -1.5649 N.ar    1  UNL1       -0.1606
     21 O          58.7522   93.1749   -2.7894 O.co2   1  UNL1       -0.6190
     22 C          59.9924   93.2791   -0.5089 C.ar    1  UNL1        0.2180
     23 C          60.4222   91.8518   -0.6774 C.3     1  UNL1        0.1093
     24 C          60.3977   94.0448    0.7157 C.ar    1  UNL1        0.1099
     25 N          60.6858   87.9495   10.0052 N.pl3   1  UNL1       -0.2872
     26 C          60.2038   88.3950   11.3539 C.ar    1  UNL1        0.0516
     27 C          58.7634   88.2157   11.7324 C.ar    1  UNL1        0.0148
     28 C          58.2813   88.6611   13.0811 C.ar    1  UNL1        0.0013
     29 C          59.2395   89.2859   14.0514 C.ar    1  UNL1        0.0001
     30 C          60.6799   89.4652   13.6729 C.ar    1  UNL1        0.0013
     31 C          61.1620   89.0198   12.3242 C.ar    1  UNL1        0.0148
     32 C          61.5268   86.7137    9.8798 C.ar    1  UNL1        0.0710
     33 C          62.2096   86.3997    8.5817 C.ar    1  UNL1        0.0180
     34 C          63.0506   85.1639    8.4564 C.ar    1  UNL1        0.0220
     35 C          63.2088   84.2423    9.6291 C.ar    1  UNL1        0.0990
     36 N          62.5260   84.5563   10.9273 N.ar    1  UNL1       -0.2410
     37 C          61.6850   85.7921   11.0526 C.ar    1  UNL1        0.1136
@<TRIPOS>UNITY_ATOM_ATTR
20 1
charge 1
21 1
charge -1
@<TRIPOS>BOND
     1    16    17    1
     2    17    18   ar
     3    18    19   ar
     4    19    20   ar
     5    20    21    1
     6    20    22   ar
     7    22    23    1
     8    22    24   ar
     9    24     7    1
    10     7     8    2
    11     7     9   am
    12     9    10    1
    13    10    11    1
    14    11    12    1
    15    12    13    1
    16    12     1    1
    17     1     2    1
    18     2     3    1
    19     3     4    1
    20     4    25    1
    21    25    26    1
    22    26    27   ar
    23    27    28   ar
    24    28    29   ar
    25    29    30   ar
    26    30    31   ar
    27    25    32    1
    28    32    33   ar
    29    33    34   ar
    30    34    35   ar
    31    35    36   ar
    32    36    37   ar
    33     4     5    1
    34     5     6    1
    35    12    14    1
    36    14    15    1
    37    24    17   ar
    38    15     9    1
    39     6     1    1
    40    31    26   ar
    41    37    32   ar
@<TRIPOS>MOLECULE
*****
 37 41 0 0 0
SMALL
GASTEIGER

@<TRIPOS>ATOM
      1 N          60.5580   92.4852    2.5908 N.3     1  UNL1       -0.2750
      2 C          60.1381   93.9089    2.8070 C.3     1  UNL1        0.0737
      3 C          59.7126   94.7507    1.6406 C.3     1  UNL1        0.0374
      4 C          59.7070   94.1687    0.2581 C.3     1  UNL1        0.0800
      5 C          60.1269   92.7451    0.0419 C.3     1  UNL1        0.0374
      6 C          60.5524   91.9033    1.2083 C.3     1  UNL1        0.0737
      7 C          59.1875   89.2499    7.1181 C.2     1  UNL1        0.2542
      8 O          57.6971   89.1618    7.2631 O.2     1  UNL1       -0.2697
      9 N          59.7862   90.0477    5.9978 N.am    1  UNL1       -0.2758
     10 C          58.8944   90.7574    5.0224 C.3     1  UNL1        0.0951
     11 C          59.4931   91.5552    3.9021 C.3     1  UNL1        0.0362
     12 C          60.9834   91.6434    3.7571 C.3     1  UNL1        0.0487
     13 C          62.3260   92.0239    3.2071 C.3     1  UNL1        0.0161
     14 C          61.8752   90.9338    4.7324 C.3     1  UNL1        0.0362
     15 C          61.2765   90.1359    5.8528 C.3     1  UNL1        0.0951
     16 C          60.0975   90.6489    9.6110 C.3     1  UNL1        0.0316
     17 C          60.5342   89.2397    9.3399 C.ar    1  UNL1       -0.0058
     18 C          61.4259   88.5301   10.3151 C.ar    1  UNL1        0.0730
     19 C          61.8626   87.1209   10.0440 C.ar    1  UNL1        0.3010
     20 N          61.4076   86.4214    8.7975 N.ar    1  UNL1       -0.1606
     21 O          61.8443   85.0122    8.5263 O.co2   1  UNL1       -0.6190
     22 C          60.5160   87.1311    7.8222 C.ar    1  UNL1        0.2180
     23 C          60.0609   86.4316    6.5757 C.3     1  UNL1        0.1093
     24 C          60.0792   88.5403    8.0934 C.ar    1  UNL1        0.1099
     25 N          59.2816   95.0105   -0.9082 N.pl3   1  UNL1       -0.2872
     26 C          57.8234   95.2376   -1.1771 C.ar    1  UNL1        0.0516
     27 C          56.9287   94.0751   -1.4905 C.ar    1  UNL1        0.0148
     28 C          55.4706   94.3021   -1.7593 C.ar    1  UNL1        0.0013
     29 C          54.9072   95.6915   -1.7149 C.ar    1  UNL1        0.0001
     30 C          55.8019   96.8540   -1.4015 C.ar    1  UNL1        0.0013
     31 C          57.2600   96.6270   -1.1327 C.ar    1  UNL1        0.0148
     32 C          60.3143   95.6253   -1.8058 C.ar    1  UNL1        0.0710
     33 C          61.5495   96.2398   -1.2170 C.ar    1  UNL1        0.0180
     34 C          62.5822   96.8546   -2.1146 C.ar    1  UNL1        0.0220
     35 C          62.3798   96.8548   -3.6008 C.ar    1  UNL1        0.0990
     36 N          61.1446   96.2403   -4.1896 N.ar    1  UNL1       -0.2410
     37 C          60.1118   95.6255   -3.2920 C.ar    1  UNL1        0.1136
@<TRIPOS>UNITY_ATOM_ATTR
20 1
charge 1
21 1
charge -1
@<TRIPOS>BOND
     1    16    17    1
     2    17    18   ar
     3    18    19   ar
     4    19    20   ar
     5    20    21    1
     6    20    22   ar
     7    22    23    1
     8    22    24   ar
     9    24     7    1
    10     7     8    2
    11     7     9   am
    12     9    10    1
    13    10    11    1
    14    11    12    1
    15    12    13    1
    16    12     1    1
    17     1     2    1
    18     2     3    1
    19     3     4    1
    20     4    25    1
    21    25    26    1
    22    26    27   ar
    23    27    28   ar
    24    28    29   ar
    25    29    30   ar
    26    30    31   ar
    27    25    32    1
    28    32    33   ar
    29    33    34   ar
    30    34    35   ar
    31    35    36   ar
    32    36    37   ar
    33     4     5    1
    34     5     6    1
    35    12    14    1
    36    14    15    1
    37    24    17   ar
    38    15     9    1
    39     6     1    1
    40    31    26   ar
    41    37    32   ar
@<TRIPOS>MOLECULE
*****
 37 41 0 0 0
SMALL
GASTEIGER

@<TRIPOS>ATOM
      1 N          60.4537   92.5054    2.6109 N.3     1  UNL1       -0.2750
      2 C          60.2933   91.8793    1.2574 C.3     1  UNL1        0.0737
      3 C          59.8622   92.7166    0.0900 C.3     1  UNL1        0.0374
      4 C          59.5915   94.1803    0.2761 C.3     1  UNL1        0.0800
      5 C          59.7519   94.8064    1.6296 C.3     1  UNL1        0.0374
      6 C          60.1830   93.9691    2.7971 C.3     1  UNL1        0.0737
      7 C          59.1050   89.2707    7.1451 C.2     1  UNL1        0.2542
      8 O          57.6152   89.1746    7.2916 O.2     1  UNL1       -0.2697
      9 N          59.6983   90.0698    6.0229 N.am    1  UNL1       -0.2758
     10 C          58.8018   90.7728    5.0471 C.3     1  UNL1        0.0951
     11 C          59.3951   91.5719    3.9249 C.3     1  UNL1        0.0362
     12 C          60.8848   91.6681    3.7784 C.3     1  UNL1        0.0487
     13 C          62.2248   92.0550    3.2265 C.3     1  UNL1        0.0161
     14 C          61.7813   90.9651    4.7541 C.3     1  UNL1        0.0362
     15 C          61.1880   90.1659    5.8764 C.3     1  UNL1        0.0951
     16 C          59.8996   90.6287    9.6994 C.3     1  UNL1        0.0316
     17 C          60.3987   89.2467    9.3981 C.ar    1  UNL1       -0.0058
     18 C          61.2951   88.5436   10.3738 C.ar    1  UNL1        0.0730
     19 C          61.7943   87.1616   10.0724 C.ar    1  UNL1        0.3010
     20 N          61.3970   86.4826    8.7953 N.ar    1  UNL1       -0.1606
     21 O          61.8961   85.1006    8.4940 O.co2   1  UNL1       -0.6190
     22 C          60.5006   87.1856    7.8196 C.ar    1  UNL1        0.2180
     23 C          60.1032   86.5066    6.5424 C.3     1  UNL1        0.1093
     24 C          60.0014   88.5677    8.1209 C.ar    1  UNL1        0.1099
     25 N          59.1604   95.0176   -0.8913 N.pl3   1  UNL1       -0.2872
     26 C          60.1887   95.6304   -1.7952 C.ar    1  UNL1        0.0516
     27 C          61.6201   95.7144   -1.3545 C.ar    1  UNL1        0.0148
     28 C          62.6484   96.3272   -2.2583 C.ar    1  UNL1        0.0013
     29 C          62.2454   96.8560   -3.6029 C.ar    1  UNL1        0.0001
     30 C          60.8141   96.7720   -4.0437 C.ar    1  UNL1        0.0013
     31 C          59.7858   96.1592   -3.1399 C.ar    1  UNL1        0.0148
     32 C          57.7009   95.2422   -1.1549 C.ar    1  UNL1        0.0710
     33 C          57.1346   96.6303   -1.1045 C.ar    1  UNL1        0.0180
     34 C          55.6751   96.8549   -1.3680 C.ar    1  UNL1        0.0220
     35 C          54.7819   95.6915   -1.6820 C.ar    1  UNL1        0.0990
     36 N          55.3482   94.3034   -1.7324 N.ar    1  UNL1       -0.2410
     37 C          56.8077   94.0788   -1.4688 C.ar    1  UNL1        0.1136
@<TRIPOS>UNITY_ATOM_ATTR
20 1
charge 1
21 1
charge -1
@<TRIPOS>BOND
     1    16    17    1
     2    17    18   ar
     3    18    19   ar
     4    19    20   ar
     5    20    21    1
     6    20    22   ar
     7    22    23    1
     8    22    24   ar
     9    24     7    1
    10     7     8    2
    11     7     9   am
    12     9    10    1
    13    10    11    1
    14    11    12    1
    15    12    13    1
    16    12     1    1
    17     1     2    1
    18     2     3    1
    19     3     4    1
    20     4    25    1
    21    25    26    1
    22    26    27   ar
    23    27    28   ar
    24    28    29   ar
    25    29    30   ar
    26    30    31   ar
    27    25    32    1
    28    32    33   ar
    29    33    34   ar
    30    34    35   ar
    31    35    36   ar
    32    36    37   ar
    33     4     5    1
    34     5     6    1
    35    12    14    1
    36    14    15    1
    37    24    17   ar
    38    15     9    1
    39     6     1    1
    40    31    26   ar
    41    37    32   ar
@<TRIPOS>MOLECULE
*****
 37 41 0 0 0
SMALL
GASTEIGER

@<TRIPOS>ATOM
      1 N          60.6600   87.8391    9.0394 N.3     1  UNL1       -0.2750
      2 C          60.0879   87.2369    7.7904 C.3     1  UNL1        0.0737
      3 C          59.6871   88.1210    6.6469 C.3     1  UNL1        0.0374
      4 C          59.8584   89.6075    6.7524 C.3     1  UNL1        0.0800
      5 C          60.4305   90.2098    8.0014 C.3     1  UNL1        0.0374
      6 C          60.8313   89.3256    9.1449 C.3     1  UNL1        0.0737
      7 C          63.8188   83.5135   11.0770 C.2     1  UNL1        0.2542
      8 O          64.6872   82.9472    9.9931 O.2     1  UNL1       -0.2697
      9 N          62.8995   84.6606   10.7790 N.am    1  UNL1       -0.2758
     10 C          62.8486   85.2415    9.3969 C.3     1  UNL1        0.0951
     11 C          61.9293   86.3887    9.0989 C.3     1  UNL1        0.0362
     12 C          61.0608   86.9550   10.1829 C.3     1  UNL1        0.0487
     13 C          60.0531   87.8283   10.8698 C.3     1  UNL1        0.0161
     14 C          61.1116   86.3742   11.5649 C.3     1  UNL1        0.0362
     15 C          62.0310   85.2270   11.8630 C.3     1  UNL1        0.0951
     16 C          64.9035   85.1433   13.3502 C.3     1  UNL1        0.0316
     17 C          64.4120   83.7475   13.5957 C.ar    1  UNL1       -0.0058
     18 C          64.4628   83.1666   14.9777 C.ar    1  UNL1        0.0730
     19 C          63.9714   81.7708   15.2231 C.ar    1  UNL1        0.3010
     20 N          63.4290   80.9559   14.0866 N.ar    1  UNL1       -0.1606
     21 O          62.9376   79.5602   14.3320 O.co2   1  UNL1       -0.6190
     22 C          63.3782   81.5368   12.7046 C.ar    1  UNL1        0.2180
     23 C          62.8358   80.7219   11.5679 C.3     1  UNL1        0.1093
     24 C          63.8697   82.9326   12.4591 C.ar    1  UNL1        0.1099
     25 N          59.4576   90.4917    5.6089 N.pl3   1  UNL1       -0.2872
     26 C          60.5026   91.0415    4.6839 C.ar    1  UNL1        0.0516
     27 C          60.2041   92.2525    3.8505 C.ar    1  UNL1        0.0148
     28 C          61.2490   92.8024    2.9254 C.ar    1  UNL1        0.0013
     29 C          62.5924   92.1414    2.8338 C.ar    1  UNL1        0.0001
     30 C          62.8908   90.9305    3.6672 C.ar    1  UNL1        0.0013
     31 C          61.8460   90.3806    4.5923 C.ar    1  UNL1        0.0148
     32 C          58.0117   90.8260    5.3904 C.ar    1  UNL1        0.0710
     33 C          57.6338   91.9857    4.5174 C.ar    1  UNL1        0.0180
     34 C          56.1879   92.3200    4.2988 C.ar    1  UNL1        0.0220
     35 C          55.1200   91.4947    4.9534 C.ar    1  UNL1        0.0990
     36 N          55.4980   90.3350    5.8264 N.ar    1  UNL1       -0.2410
     37 C          56.9439   90.0007    6.0449 C.ar    1  UNL1        0.1136
@<TRIPOS>UNITY_ATOM_ATTR
20 1
charge 1
21 1
charge -1
@<TRIPOS>BOND
     1    16    17    1
     2    17    18   ar
     3    18    19   ar
     4    19    20   ar
     5    20    21    1
     6    20    22   ar
     7    22    23    1
     8    22    24   ar
     9    24     7    1
    10     7     8    2
    11     7     9   am
    12     9    10    1
    13    10    11    1
    14    11    12    1
    15    12    13    1
    16    12     1    1
    17     1     2    1
    18     2     3    1
    19     3     4    1
    20     4    25    1
    21    25    26    1
    22    26    27   ar
    23    27    28   ar
    24    28    29   ar
    25    29    30   ar
    26    30    31   ar
    27    25    32    1
    28    32    33   ar
    29    33    34   ar
    30    34    35   ar
    31    35    36   ar
    32    36    37   ar
    33     4     5    1
    34     5     6    1
    35    12    14    1
    36    14    15    1
    37    24    17   ar
    38    15     9    1
    39     6     1    1
    40    31    26   ar
    41    37    32   ar
@<TRIPOS>MOLECULE
*****
 37 41 0 0 0
SMALL
GASTEIGER

@<TRIPOS>ATOM
      1 N          60.2333   90.0389    6.8195 N.3     1  UNL1       -0.2750
      2 C          59.8185   88.6214    7.0807 C.3     1  UNL1        0.0737
      3 C          60.4046   87.8696    8.2388 C.3     1  UNL1        0.0374
      4 C          61.4057   88.5355    9.1357 C.3     1  UNL1        0.0800
      5 C          61.8206   89.9531    8.8746 C.3     1  UNL1        0.0374
      6 C          61.2344   90.7048    7.7164 C.3     1  UNL1        0.0737
      7 C          60.9620   93.0813    2.0180 C.2     1  UNL1        0.2542
      8 O          62.4232   93.2382    1.7177 O.2     1  UNL1       -0.2697
      9 N          60.5237   92.3178    3.2324 N.am    1  UNL1       -0.2758
     10 C          61.5467   91.7111    4.1466 C.3     1  UNL1        0.0951
     11 C          61.1084   90.9476    5.3611 C.3     1  UNL1        0.0362
     12 C          59.6471   90.7907    5.6614 C.3     1  UNL1        0.0487
     13 C          58.3895   90.3727    6.3639 C.3     1  UNL1        0.0161
     14 C          58.6242   91.3973    4.7473 C.3     1  UNL1        0.0362
     15 C          59.0625   92.1608    3.5328 C.3     1  UNL1        0.0951
     16 C          60.3005   95.9995    2.2332 C.3     1  UNL1        0.0316
     17 C          59.6084   95.1470    1.2114 C.ar    1  UNL1       -0.0058
     18 C          58.5855   95.7535    0.2973 C.ar    1  UNL1        0.0730
     19 C          57.8933   94.9010   -0.7245 C.ar    1  UNL1        0.3010
     20 N          58.2240   93.4419   -0.8321 N.ar    1  UNL1       -0.1606
     21 O          57.5318   92.5894   -1.8539 O.co2   1  UNL1       -0.6190
     22 C          59.2469   92.8354    0.0820 C.ar    1  UNL1        0.2180
     23 C          59.5776   91.3762   -0.0256 C.3     1  UNL1        0.1093
     24 C          59.9391   93.6879    1.1038 C.ar    1  UNL1        0.1099
     25 N          61.9919   87.7837   10.2938 N.pl3   1  UNL1       -0.2872
     26 C          62.2902   88.4985   11.5784 C.ar    1  UNL1        0.0516
     27 C          61.4646   89.6823   11.9871 C.ar    1  UNL1        0.0148
     28 C          61.7628   90.3971   13.2716 C.ar    1  UNL1        0.0013
     29 C          62.8867   89.9283   14.1474 C.ar    1  UNL1        0.0001
     30 C          63.7123   88.7445   13.7387 C.ar    1  UNL1        0.0013
     31 C          63.4141   88.0297   12.4542 C.ar    1  UNL1        0.0148
     32 C          62.2798   86.3170   10.1674 C.ar    1  UNL1        0.0710
     33 C          62.0252   85.4001   11.3269 C.ar    1  UNL1        0.0180
     34 C          62.3131   83.9334   11.2005 C.ar    1  UNL1        0.0220
     35 C          62.8556   83.3837    9.9146 C.ar    1  UNL1        0.0990
     36 N          63.1102   84.3006    8.7552 N.ar    1  UNL1       -0.2410
     37 C          62.8223   85.7673    8.8816 C.ar    1  UNL1        0.1136
@<TRIPOS>UNITY_ATOM_ATTR
20 1
charge 1
21 1
charge -1
@<TRIPOS>BOND
     1    16    17    1
     2    17    18   ar
     3    18    19   ar
     4    19    20   ar
     5    20    21    1
     6    20    22   ar
     7    22    23    1
     8    22    24   ar
     9    24     7    1
    10     7     8    2
    11     7     9   am
    12     9    10    1
    13    10    11    1
    14    11    12    1
    15    12    13    1
    16    12     1    1
    17     1     2    1
    18     2     3    1
    19     3     4    1
    20     4    25    1
    21    25    26    1
    22    26    27   ar
    23    27    28   ar
    24    28    29   ar
    25    29    30   ar
    26    30    31   ar
    27    25    32    1
    28    32    33   ar
    29    33    34   ar
    30    34    35   ar
    31    35    36   ar
    32    36    37   ar
    33     4     5    1
    34     5     6    1
    35    12    14    1
    36    14    15    1
    37    24    17   ar
    38    15     9    1
    39     6     1    1
    40    31    26   ar
    41    37    32   ar
@<TRIPOS>MOLECULE
*****
 37 41 0 0 0
SMALL
GASTEIGER

@<TRIPOS>ATOM
      1 N          59.9547   90.3995    5.9834 N.3     1  UNL1       -0.2750
      2 C          59.1508   89.1738    6.3019 C.3     1  UNL1        0.0737
      3 C          59.4451   88.3857    7.5437 C.3     1  UNL1        0.0374
      4 C          60.5432   88.8233    8.4671 C.3     1  UNL1        0.0800
      5 C          61.3471   90.0489    8.1487 C.3     1  UNL1        0.0374
      6 C          61.0528   90.8371    6.9068 C.3     1  UNL1        0.0737
      7 C          61.8204   93.2757    1.3913 C.2     1  UNL1        0.2542
      8 O          63.3199   93.2801    1.3534 O.2     1  UNL1       -0.2697
      9 N          61.1004   92.5797    2.5080 N.am    1  UNL1       -0.2758
     10 C          61.8799   91.8881    3.5870 C.3     1  UNL1        0.0951
     11 C          61.1599   91.1921    4.7037 C.3     1  UNL1        0.0362
     12 C          59.6604   91.1877    4.7415 C.3     1  UNL1        0.0487
     13 C          58.2631   90.9095    5.2106 C.3     1  UNL1        0.0161
     14 C          58.8809   91.8792    3.6626 C.3     1  UNL1        0.0362
     15 C          59.6009   92.5752    2.5458 C.3     1  UNL1        0.0951
     16 C          62.1807   92.4645   -1.4744 C.3     1  UNL1        0.0316
     17 C          61.2211   93.5617   -1.1205 C.ar    1  UNL1       -0.0058
     18 C          60.4416   94.2532   -2.1994 C.ar    1  UNL1        0.0730
     19 C          59.4819   95.3504   -1.8455 C.ar    1  UNL1        0.3010
     20 N          59.3018   95.7560   -0.4127 N.ar    1  UNL1       -0.1606
     21 O          58.3421   96.8532   -0.0588 O.co2   1  UNL1       -0.6190
     22 C          60.0812   95.0644    0.6662 C.ar    1  UNL1        0.2180
     23 C          59.9011   95.4700    2.0991 C.3     1  UNL1        0.1093
     24 C          61.0409   93.9673    0.3123 C.ar    1  UNL1        0.1099
     25 N          60.8375   88.0351    9.7090 N.pl3   1  UNL1       -0.2872
     26 C          61.6233   86.7605    9.6199 C.ar    1  UNL1        0.0516
     27 C          62.0711   86.2475    8.2833 C.ar    1  UNL1        0.0148
     28 C          62.8569   84.9730    8.1941 C.ar    1  UNL1        0.0013
     29 C          63.1949   84.2114    9.4414 C.ar    1  UNL1        0.0001
     30 C          62.7470   84.7244   10.7780 C.ar    1  UNL1        0.0013
     31 C          61.9612   85.9989   10.8672 C.ar    1  UNL1        0.0148
     32 C          60.3459   88.5216   11.0401 C.ar    1  UNL1        0.0710
     33 C          61.2452   89.3401   11.9182 C.ar    1  UNL1        0.0180
     34 C          60.7536   89.8265   13.2493 C.ar    1  UNL1        0.0220
     35 C          59.3628   89.4945   13.7022 C.ar    1  UNL1        0.0990
     36 N          58.4634   88.6759   12.8240 N.ar    1  UNL1       -0.2410
     37 C          58.9550   88.1895   11.4929 C.ar    1  UNL1        0.1136
@<TRIPOS>UNITY_ATOM_ATTR
20 1
charge 1
21 1
charge -1
@<TRIPOS>BOND
     1    16    17    1
     2    17    18   ar
     3    18    19   ar
     4    19    20   ar
     5    20    21    1
     6    20    22   ar
     7    22    23    1
     8    22    24   ar
     9    24     7    1
    10     7     8    2
    11     7     9   am
    12     9    10    1
    13    10    11    1
    14    11    12    1
    15    12    13    1
    16    12     1    1
    17     1     2    1
    18     2     3    1
    19     3     4    1
    20     4    25    1
    21    25    26    1
    22    26    27   ar
    23    27    28   ar
    24    28    29   ar
    25    29    30   ar
    26    30    31   ar
    27    25    32    1
    28    32    33   ar
    29    33    34   ar
    30    34    35   ar
    31    35    36   ar
    32    36    37   ar
    33     4     5    1
    34     5     6    1
    35    12    14    1
    36    14    15    1
    37    24    17   ar
    38    15     9    1
    39     6     1    1
    40    31    26   ar
    41    37    32   ar
