@<TRIPOS>MOLECULE
*****
 39 42 0 0 0
SMALL
GASTEIGER

@<TRIPOS>ATOM
      1 C          63.9795   90.0701   13.7965 C.2     1  UNL1        0.2522
      2 O          63.2140   90.7543   14.8900 O.2     1  UNL1       -0.2699
      3 N          64.8804   90.8668   12.8999 N.am    1  UNL1       -0.2981
      4 H          65.3828   90.4178   12.1821 H       1  UNL1        0.1498
      5 C          63.9535   83.2011   14.0522 C.ar    1  UNL1        0.1414
      6 C          64.6041   83.7362   15.2933 C.ar    1  UNL1        0.0371
      7 C          64.7394   85.2170   15.4904 C.ar    1  UNL1        0.0062
      8 C          64.2241   86.1628   14.4464 C.ar    1  UNL1        0.0352
      9 C          64.3594   87.6436   14.6434 C.ar    1  UNL1        0.0141
     10 C          63.8442   88.5893   13.5994 C.ar    1  UNL1        0.1293
     11 C          63.1935   88.0542   12.3582 C.ar    1  UNL1        0.3502
     12 O          62.6782   89.0000   11.3142 O.2     1  UNL1       -0.2443
     13 O          63.0582   86.5734   12.1612 O.2     1  UNL1       -0.4208
     14 C          63.5735   85.6277   13.2053 C.ar    1  UNL1        0.1517
     15 C          63.4382   84.1468   13.0082 C.ar    1  UNL1        0.0744
     16 O          63.8181   81.7203   13.8552 O.3     1  UNL1       -0.4791
     17 C          62.5215   81.1437   13.3691 C.3     1  UNL1        0.1659
     18 C          60.1814   80.3017   14.1209 C.3     1  UNL1        0.0038
     19 C          61.2685   81.3342   14.1714 C.3     1  UNL1        0.0435
     20 C          62.4779   80.3767   12.0807 C.3     1  UNL1        0.0435
     21 C          63.1124   80.9466   10.8468 C.3     1  UNL1        0.0038
     22 C          65.0157   92.3477   13.0969 C.3     1  UNL1        0.1228
     23 C          65.5598   93.2046   11.9926 C.3     1  UNL1        0.1464
     24 O          64.7572   92.4259   10.9929 O.3     1  UNL1       -0.3790
     25 H          64.2525   91.7356   11.4507 H       1  UNL1        0.2108
     26 C          66.1040   94.0616   10.8883 C.ar    1  UNL1        0.0158
     27 C          65.5753   95.4508   10.6871 C.ar    1  UNL1       -0.0002
     28 C          66.1195   96.3078    9.5829 C.ar    1  UNL1        0.0112
     29 C          67.1923   95.7755    8.6797 C.ar    1  UNL1        0.0585
     30 CL         67.7365   96.6325    7.5754 Cl      1  UNL1       -0.0822
     31 C          67.7210   94.3862    8.8808 C.ar    1  UNL1        0.0225
     32 C          67.1768   93.5293    9.9851 C.ar    1  UNL1        0.0568
     33 CL         67.7055   92.1400   10.1863 Cl      1  UNL1       -0.0825
     34 C          66.3624   93.9833   12.9923 C.3     1  UNL1        0.1403
     35 N          67.2033   93.2626   14.0040 N.ar    1  UNL1       -0.3050
     36 C          67.2590   93.5559   15.4739 C.ar    1  UNL1        0.0981
     37 C          68.2263   92.5966   16.1018 C.ar    1  UNL1        0.1193
     38 N          68.7683   91.7103   15.0198 N.ar    1  UNL1       -0.2223
     39 C          68.1361   92.1219   13.7232 C.ar    1  UNL1        0.1787
@<TRIPOS>BOND
     1    18    19    1
     2    19    17    1
     3    17    20    1
     4    20    21    1
     5    17    16    1
     6    16     5    1
     7     5     6   ar
     8     6     7   ar
     9     7     8   ar
    10     8     9   ar
    11     9    10   ar
    12    10     1    1
    13     1     2    2
    14     1     3   am
    15     3    22    1
    16    22    23    1
    17    23    24    1
    18    23    34    1
    19    34    35    1
    20    35    36   ar
    21    36    37   ar
    22    37    38   ar
    23    38    39   ar
    24    23    26    1
    25    26    27   ar
    26    27    28   ar
    27    28    29   ar
    28    29    30    1
    29    29    31   ar
    30    31    32   ar
    31    32    33    1
    32    10    11   ar
    33    11    12    2
    34    11    13   ar
    35    13    14   ar
    36    14    15   ar
    37    15     5   ar
    38    14     8   ar
    39    39    35   ar
    40    32    26   ar
    41     3     4    1
    42    24    25    1
@<TRIPOS>MOLECULE
*****
 39 42 0 0 0
SMALL
GASTEIGER

@<TRIPOS>ATOM
      1 C          59.0075   89.7404    6.2847 C.2     1  UNL1        0.2522
      2 O          57.5410   89.5300    6.5192 O.2     1  UNL1       -0.2699
      3 N          60.0136   88.9671    7.0847 N.am    1  UNL1       -0.2981
      4 H          60.9761   89.1053    6.9308 H       1  UNL1        0.1498
      5 C          62.2758   93.6625    1.6819 C.ar    1  UNL1        0.1414
      6 C          63.2413   92.6660    2.2516 C.ar    1  UNL1        0.0371
      7 C          62.7808   91.6823    3.2861 C.ar    1  UNL1        0.0062
      8 C          61.3547   91.6951    3.7509 C.ar    1  UNL1        0.0352
      9 C          60.8941   90.7114    4.7854 C.ar    1  UNL1        0.0141
     10 C          59.4681   90.7241    5.2502 C.ar    1  UNL1        0.1293
     11 C          58.5024   91.7207    4.6804 C.ar    1  UNL1        0.3502
     12 O          57.0763   91.7334    5.1452 O.2     1  UNL1       -0.2443
     13 O          58.9629   92.7044    3.6459 O.2     1  UNL1       -0.4208
     14 C          60.3891   92.6916    3.1812 C.ar    1  UNL1        0.1517
     15 C          60.8497   93.6753    2.1466 C.ar    1  UNL1        0.0744
     16 O          62.7363   94.6462    0.6474 O.3     1  UNL1       -0.4791
     17 C          64.0328   95.3774    0.8324 C.3     1  UNL1        0.1659
     18 C          64.9266   95.7434   -1.5795 C.3     1  UNL1        0.0038
     19 C          65.1270   95.2328   -0.1834 C.3     1  UNL1        0.0435
     20 C          64.2352   96.2533    2.0332 C.3     1  UNL1        0.0435
     21 C          65.1581   95.8175    3.1325 C.3     1  UNL1        0.0038
     22 C          59.5530   87.9834    8.1192 C.3     1  UNL1        0.1228
     23 C          60.5277   87.0131    8.7179 C.3     1  UNL1        0.1464
     24 O          59.8575   85.8883    7.9861 O.3     1  UNL1       -0.3790
     25 H          59.1188   86.2374    7.4633 H       1  UNL1        0.2108
     26 C          61.5025   86.0428    9.3167 C.ar    1  UNL1        0.0158
     27 C          61.5686   85.8683   10.8050 C.ar    1  UNL1       -0.0002
     28 C          62.5433   84.8980   11.4037 C.ar    1  UNL1        0.0112
     29 C          63.4519   84.1023   10.5141 C.ar    1  UNL1        0.0585
     30 CL         64.4266   83.1320   11.1129 Cl      1  UNL1       -0.0822
     31 C          63.3857   84.2769    9.0258 C.ar    1  UNL1        0.0225
     32 C          62.4110   85.2472    8.4271 C.ar    1  UNL1        0.0568
     33 CL         62.3449   85.4218    6.9387 Cl      1  UNL1       -0.0825
     34 C          61.1979   88.1379    9.4498 C.3     1  UNL1        0.1403
     35 N          60.4234   88.9543   10.4416 N.ar    1  UNL1       -0.3050
     36 C          60.2243   90.4403   10.3965 C.ar    1  UNL1        0.0981
     37 C          59.3899   90.8323   11.5797 C.ar    1  UNL1        0.1193
     38 N          59.0732   89.5886   12.3561 N.ar    1  UNL1       -0.2223
     39 C          59.7119   88.4278   11.6528 C.ar    1  UNL1        0.1787
@<TRIPOS>BOND
     1    18    19    1
     2    19    17    1
     3    17    20    1
     4    20    21    1
     5    17    16    1
     6    16     5    1
     7     5     6   ar
     8     6     7   ar
     9     7     8   ar
    10     8     9   ar
    11     9    10   ar
    12    10     1    1
    13     1     2    2
    14     1     3   am
    15     3    22    1
    16    22    23    1
    17    23    24    1
    18    23    34    1
    19    34    35    1
    20    35    36   ar
    21    36    37   ar
    22    37    38   ar
    23    38    39   ar
    24    23    26    1
    25    26    27   ar
    26    27    28   ar
    27    28    29   ar
    28    29    30    1
    29    29    31   ar
    30    31    32   ar
    31    32    33    1
    32    10    11   ar
    33    11    12    2
    34    11    13   ar
    35    13    14   ar
    36    14    15   ar
    37    15     5   ar
    38    14     8   ar
    39    39    35   ar
    40    32    26   ar
    41     3     4    1
    42    24    25    1
@<TRIPOS>MOLECULE
*****
 39 42 0 0 0
SMALL
GASTEIGER

@<TRIPOS>ATOM
      1 C          64.3964   89.9750   15.1123 C.2     1  UNL1        0.2522
      2 O          63.4504   91.0665   15.5169 O.2     1  UNL1       -0.2699
      3 N          65.7336   90.3202   14.5268 N.am    1  UNL1       -0.2981
      4 H          66.3545   89.6038   14.2612 H       1  UNL1        0.1498
      5 C          63.0854   83.2376   14.7386 C.ar    1  UNL1        0.1414
      6 C          63.7300   83.6841   13.4600 C.ar    1  UNL1        0.0371
      7 C          64.1212   85.1208   13.2790 C.ar    1  UNL1        0.0062
      8 C          63.8677   86.1111   14.3766 C.ar    1  UNL1        0.0352
      9 C          64.2588   87.5479   14.1956 C.ar    1  UNL1        0.0141
     10 C          64.0053   88.5382   15.2933 C.ar    1  UNL1        0.1293
     11 C          63.3606   88.0918   16.5721 C.ar    1  UNL1        0.3502
     12 O          63.1071   89.0821   17.6698 O.2     1  UNL1       -0.2443
     13 O          62.9694   86.6550   16.7531 O.2     1  UNL1       -0.4208
     14 C          63.2230   85.6647   15.6553 C.ar    1  UNL1        0.1517
     15 C          62.8319   84.2280   15.8363 C.ar    1  UNL1        0.0744
     16 O          62.6943   81.8009   14.9196 O.3     1  UNL1       -0.4791
     17 C          61.9722   81.0762   13.8226 C.3     1  UNL1        0.1659
     18 C          62.8200   80.8431   11.3778 C.3     1  UNL1        0.0038
     19 C          62.7487   80.3235   12.7832 C.3     1  UNL1        0.0435
     20 C          60.4735   81.1043   13.7650 C.3     1  UNL1        0.0435
     21 C          59.6778   80.0022   14.3992 C.3     1  UNL1        0.0038
     22 C          66.1247   91.7569   14.3458 C.3     1  UNL1        0.1228
     23 C          66.5424   92.2560   12.9943 C.3     1  UNL1        0.1464
     24 O          67.9593   91.8592   13.2857 O.3     1  UNL1       -0.3790
     25 H          68.0101   91.4694   14.1725 H       1  UNL1        0.2108
     26 C          66.9601   92.7551   11.6428 C.ar    1  UNL1        0.0158
     27 C          67.6002   91.8179   10.6621 C.ar    1  UNL1       -0.0002
     28 C          68.0178   92.3170    9.3106 C.ar    1  UNL1        0.0112
     29 C          67.7953   93.7533    8.9399 C.ar    1  UNL1        0.0585
     30 CL         68.2129   94.2524    7.5884 Cl      1  UNL1       -0.0822
     31 C          67.1552   94.6905    9.9206 C.ar    1  UNL1        0.0225
     32 C          66.7376   94.1914   11.2721 C.ar    1  UNL1        0.0568
     33 CL         66.0974   95.1287   12.2529 Cl      1  UNL1       -0.0825
     34 C          65.1255   92.6527   12.7029 C.3     1  UNL1        0.1403
     35 N          64.2829   91.8101   11.7919 N.ar    1  UNL1       -0.3050
     36 C          63.4985   90.5950   12.1896 C.ar    1  UNL1        0.0981
     37 C          62.8076   90.0685   10.9667 C.ar    1  UNL1        0.1193
     38 N          63.1650   90.9582    9.8132 N.ar    1  UNL1       -0.2223
     39 C          64.0768   92.0346   10.3231 C.ar    1  UNL1        0.1787
@<TRIPOS>BOND
     1    18    19    1
     2    19    17    1
     3    17    20    1
     4    20    21    1
     5    17    16    1
     6    16     5    1
     7     5     6   ar
     8     6     7   ar
     9     7     8   ar
    10     8     9   ar
    11     9    10   ar
    12    10     1    1
    13     1     2    2
    14     1     3   am
    15     3    22    1
    16    22    23    1
    17    23    24    1
    18    23    34    1
    19    34    35    1
    20    35    36   ar
    21    36    37   ar
    22    37    38   ar
    23    38    39   ar
    24    23    26    1
    25    26    27   ar
    26    27    28   ar
    27    28    29   ar
    28    29    30    1
    29    29    31   ar
    30    31    32   ar
    31    32    33    1
    32    10    11   ar
    33    11    12    2
    34    11    13   ar
    35    13    14   ar
    36    14    15   ar
    37    15     5   ar
    38    14     8   ar
    39    39    35   ar
    40    32    26   ar
    41     3     4    1
    42    24    25    1
@<TRIPOS>MOLECULE
*****
 39 42 0 0 0
SMALL
GASTEIGER

@<TRIPOS>ATOM
      1 C          61.6209   94.2482    1.3268 C.2     1  UNL1        0.2522
      2 O          60.8341   95.5245    1.2825 O.2     1  UNL1       -0.2699
      3 N          62.6940   93.9929    0.3102 N.am    1  UNL1       -0.2981
      4 H          63.2103   93.1552    0.3392 H       1  UNL1        0.1498
      5 C          59.0862   90.0184    6.1158 C.ar    1  UNL1        0.1414
      6 C          57.9828   90.8943    5.6007 C.ar    1  UNL1        0.0371
      7 C          58.2691   91.9155    4.5399 C.ar    1  UNL1        0.0062
      8 C          59.6587   92.0607    3.9941 C.ar    1  UNL1        0.0352
      9 C          59.9450   93.0818    2.9333 C.ar    1  UNL1        0.0141
     10 C          61.3346   93.2270    2.3876 C.ar    1  UNL1        0.1293
     11 C          62.4380   92.3511    2.9027 C.ar    1  UNL1        0.3502
     12 O          63.8276   92.4963    2.3570 O.2     1  UNL1       -0.2443
     13 O          62.1518   91.3299    3.9635 O.2     1  UNL1       -0.4208
     14 C          60.7621   91.1848    4.5092 C.ar    1  UNL1        0.1517
     15 C          60.4758   90.1636    5.5701 C.ar    1  UNL1        0.0744
     16 O          58.7999   88.9973    7.1766 O.3     1  UNL1       -0.4791
     17 C          59.8508   88.6541    8.1904 C.3     1  UNL1        0.1659
     18 C          59.8051   86.1062    7.6845 C.3     1  UNL1        0.0038
     19 C          60.5526   87.3301    8.1244 C.3     1  UNL1        0.0435
     20 C          60.2000   89.6351    9.2702 C.3     1  UNL1        0.0435
     21 C          61.5090   89.5199    9.9934 C.3     1  UNL1        0.0038
     22 C          62.9802   95.0141   -0.7506 C.3     1  UNL1        0.1228
     23 C          63.4710   94.5773   -2.0991 C.3     1  UNL1        0.1464
     24 O          64.5907   93.8218   -1.4468 O.3     1  UNL1       -0.3790
     25 H          64.5328   93.9252   -0.4841 H       1  UNL1        0.2108
     26 C          63.9618   94.1406   -3.4476 C.ar    1  UNL1        0.0158
     27 C          63.5693   92.7984   -3.9900 C.ar    1  UNL1       -0.0002
     28 C          64.0601   92.3617   -5.3385 C.ar    1  UNL1        0.0112
     29 C          64.9434   93.2673   -6.1445 C.ar    1  UNL1        0.0585
     30 CL         65.4342   92.8306   -7.4931 Cl      1  UNL1       -0.0822
     31 C          65.3359   94.6096   -5.6021 C.ar    1  UNL1        0.0225
     32 C          64.8451   95.0462   -4.2537 C.ar    1  UNL1        0.0568
     33 CL         65.2376   96.3885   -3.7112 Cl      1  UNL1       -0.0825
     34 C          62.3514   95.3329   -2.7513 C.3     1  UNL1        0.1403
     35 N          60.9274   94.9547   -2.4698 N.ar    1  UNL1       -0.3050
     36 C          59.8203   95.8984   -2.1041 C.ar    1  UNL1        0.0981
     37 C          58.5692   95.0933   -1.9129 C.ar    1  UNL1        0.1193
     38 N          58.9030   93.6521   -2.1604 N.ar    1  UNL1       -0.2223
     39 C          60.3605   93.5663   -2.5046 C.ar    1  UNL1        0.1787
@<TRIPOS>BOND
     1    18    19    1
     2    19    17    1
     3    17    20    1
     4    20    21    1
     5    17    16    1
     6    16     5    1
     7     5     6   ar
     8     6     7   ar
     9     7     8   ar
    10     8     9   ar
    11     9    10   ar
    12    10     1    1
    13     1     2    2
    14     1     3   am
    15     3    22    1
    16    22    23    1
    17    23    24    1
    18    23    34    1
    19    34    35    1
    20    35    36   ar
    21    36    37   ar
    22    37    38   ar
    23    38    39   ar
    24    23    26    1
    25    26    27   ar
    26    27    28   ar
    27    28    29   ar
    28    29    30    1
    29    29    31   ar
    30    31    32   ar
    31    32    33    1
    32    10    11   ar
    33    11    12    2
    34    11    13   ar
    35    13    14   ar
    36    14    15   ar
    37    15     5   ar
    38    14     8   ar
    39    39    35   ar
    40    32    26   ar
    41     3     4    1
    42    24    25    1
@<TRIPOS>MOLECULE
*****
 39 42 0 0 0
SMALL
GASTEIGER

@<TRIPOS>ATOM
      1 C          64.0568   89.5837   15.1827 C.2     1  UNL1        0.2522
      2 O          63.2979   90.4933   16.1029 O.2     1  UNL1       -0.2699
      3 N          64.9930   90.1603   14.1623 N.am    1  UNL1       -0.2981
      4 H          65.4911   89.5633   13.5583 H       1  UNL1        0.1498
      5 C          63.6993   82.7618   14.4189 C.ar    1  UNL1        0.1414
      6 C          64.2275   83.3705   13.1538 C.ar    1  UNL1        0.0371
      7 C          64.4047   84.8566   13.0536 C.ar    1  UNL1        0.0062
      8 C          64.0536   85.7340   14.2184 C.ar    1  UNL1        0.0352
      9 C          64.2307   87.2202   14.1182 C.ar    1  UNL1        0.0141
     10 C          63.8797   88.0976   15.2830 C.ar    1  UNL1        0.1293
     11 C          63.3514   87.4889   16.5481 C.ar    1  UNL1        0.3502
     12 O          63.0004   88.3663   17.7130 O.2     1  UNL1       -0.2443
     13 O          63.1743   86.0028   16.6484 O.2     1  UNL1       -0.4208
     14 C          63.5254   85.1253   15.4835 C.ar    1  UNL1        0.1517
     15 C          63.3482   83.6392   15.5837 C.ar    1  UNL1        0.0744
     16 O          63.5221   81.2757   14.5192 O.3     1  UNL1       -0.4791
     17 C          62.6355   80.5586   13.5446 C.3     1  UNL1        0.1659
     18 C          62.8001   81.6315   11.1841 C.3     1  UNL1        0.0038
     19 C          63.0293   80.4660   12.1002 C.3     1  UNL1        0.0435
     20 C          61.3552   79.9341   14.0145 C.3     1  UNL1        0.0435
     21 C          60.1021   80.7555   14.0858 C.3     1  UNL1        0.0038
     22 C          65.1702   91.6464   14.0620 C.3     1  UNL1        0.1228
     23 C          65.8037   92.2456   12.8415 C.3     1  UNL1        0.1464
     24 O          64.4522   92.6708   12.3488 O.3     1  UNL1       -0.3790
     25 H          63.7747   92.3971   12.9867 H       1  UNL1        0.2108
     26 C          66.4372   92.8448   11.6210 C.ar    1  UNL1        0.0158
     27 C          67.0249   91.9539   10.5670 C.ar    1  UNL1       -0.0002
     28 C          67.6584   92.5531    9.3465 C.ar    1  UNL1        0.0112
     29 C          67.7043   94.0431    9.1801 C.ar    1  UNL1        0.0585
     30 CL         68.3379   94.6423    7.9596 Cl      1  UNL1       -0.0822
     31 C          67.1166   94.9340   10.2341 C.ar    1  UNL1        0.0225
     32 C          66.4831   94.3348   11.4546 C.ar    1  UNL1        0.0568
     33 CL         65.8954   95.2256   12.5087 Cl      1  UNL1       -0.0825
     34 C          67.1551   91.8204   13.3343 C.3     1  UNL1        0.1403
     35 N          67.8506   92.6175   14.3977 N.ar    1  UNL1       -0.3050
     36 C          69.3276   92.6398   14.6586 C.ar    1  UNL1        0.0981
     37 C          69.5811   93.5684   15.8091 C.ar    1  UNL1        0.1193
     38 N          68.2608   94.1200   16.2591 N.ar    1  UNL1       -0.2223
     39 C          67.1913   93.5324   15.3868 C.ar    1  UNL1        0.1787
@<TRIPOS>BOND
     1    18    19    1
     2    19    17    1
     3    17    20    1
     4    20    21    1
     5    17    16    1
     6    16     5    1
     7     5     6   ar
     8     6     7   ar
     9     7     8   ar
    10     8     9   ar
    11     9    10   ar
    12    10     1    1
    13     1     2    2
    14     1     3   am
    15     3    22    1
    16    22    23    1
    17    23    24    1
    18    23    34    1
    19    34    35    1
    20    35    36   ar
    21    36    37   ar
    22    37    38   ar
    23    38    39   ar
    24    23    26    1
    25    26    27   ar
    26    27    28   ar
    27    28    29   ar
    28    29    30    1
    29    29    31   ar
    30    31    32   ar
    31    32    33    1
    32    10    11   ar
    33    11    12    2
    34    11    13   ar
    35    13    14   ar
    36    14    15   ar
    37    15     5   ar
    38    14     8   ar
    39    39    35   ar
    40    32    26   ar
    41     3     4    1
    42    24    25    1
