@<TRIPOS>MOLECULE
*****
 31 34 0 0 0
SMALL
GASTEIGER

@<TRIPOS>ATOM
      1 C          63.8390   87.7914   15.2997 C.2     1  UNL1        0.2534
      2 O          63.1511   88.2593   16.5479 O.2     1  UNL1       -0.2695
      3 N          64.6349   88.7586   14.4745 N.am    1  UNL1       -0.2965
      4 H          65.0864   88.4515   13.6553 H       1  UNL1        0.1501
      5 C          62.9151   80.8559   11.7404 C.3     1  UNL1        0.0537
      6 C          63.1931   81.8805   12.8001 C.ar    1  UNL1        0.0771
      7 N          63.5617   81.4440   14.1870 N.ar    1  UNL1       -0.1522
      8 N          63.8396   82.4686   15.2467 N.ar    1  UNL1       -0.1416
      9 C          63.7489   83.9297   14.9195 C.ar    1  UNL1        0.1333
     10 S          63.9656   85.1596   15.7503 S.2     1  UNL1       -0.0604
     11 C          63.7309   86.3563   14.8768 C.ar    1  UNL1        0.0971
     12 C          63.3691   85.8659   13.5062 C.ar    1  UNL1        0.0538
     13 N          63.0520   86.7244   12.3178 N.pl3   1  UNL1       -0.3564
     14 C          63.3803   84.3661   13.5326 C.ar    1  UNL1        0.0363
     15 C          63.1024   83.3415   12.4729 C.ar    1  UNL1       -0.0033
     16 C          62.7337   83.7780   11.0859 C.3     1  UNL1        0.0324
     17 H          63.0710   87.7053   12.4000 H       1  UNL1        0.1424
     18 H          62.8247   86.3070   11.4556 H       1  UNL1        0.1424
     19 C          64.7430   90.1936   14.8974 C.3     1  UNL1        0.1166
     20 C          65.1753   91.2363   13.9094 C.ar    1  UNL1       -0.0026
     21 C          64.4997   91.3295   12.5735 C.ar    1  UNL1       -0.0026
     22 C          64.9320   92.3720   11.5855 C.ar    1  UNL1       -0.0003
     23 C          66.0400   93.3214   11.9336 C.ar    1  UNL1        0.0001
     24 C          66.7156   93.2282   13.2695 C.ar    1  UNL1       -0.0003
     25 C          66.2832   92.1856   14.2574 C.ar    1  UNL1       -0.0026
     26 C          66.4723   94.3640   10.9455 C.ar    1  UNL1        0.0031
     27 C          67.2110   93.9603    9.7040 C.ar    1  UNL1        0.0207
     28 C          67.6433   95.0029    8.7160 C.ar    1  UNL1        0.0989
     29 N          67.3369   96.4493    8.9696 N.ar    1  UNL1       -0.2423
     30 C          66.5982   96.8530   10.2111 C.ar    1  UNL1        0.0989
     31 C          66.1659   95.8104   11.1991 C.ar    1  UNL1        0.0207
@<TRIPOS>BOND
     1     5     6    1
     2     6     7   ar
     3     7     8   ar
     4     8     9   ar
     5     9    10   ar
     6    10    11   ar
     7    11     1    1
     8     1     2    2
     9     1     3   am
    10     3    19    1
    11    19    20    1
    12    20    21   ar
    13    21    22   ar
    14    22    23   ar
    15    23    26    1
    16    26    27   ar
    17    27    28   ar
    18    28    29   ar
    19    29    30   ar
    20    30    31   ar
    21    23    24   ar
    22    24    25   ar
    23    11    12   ar
    24    12    13    1
    25    12    14   ar
    26    14    15   ar
    27    15    16    1
    28    15     6   ar
    29    14     9   ar
    30    25    20   ar
    31    31    26   ar
    32     3     4    1
    33    13    17    1
    34    13    18    1
@<TRIPOS>MOLECULE
*****
 31 34 0 0 0
SMALL
GASTEIGER

@<TRIPOS>ATOM
      1 C          63.6665   89.1895   15.2752 C.2     1  UNL1        0.2534
      2 O          62.3716   89.3293   16.0194 O.2     1  UNL1       -0.2695
      3 N          64.3268   87.8473   15.1646 N.am    1  UNL1       -0.2965
      4 H          65.1767   87.7555   14.6761 H       1  UNL1        0.1501
      5 C          66.3905   94.9453   10.6845 C.3     1  UNL1        0.0537
      6 C          66.1087   94.1146   11.9013 C.ar    1  UNL1        0.0771
      7 N          66.6442   94.5361   13.2375 N.ar    1  UNL1       -0.1522
      8 N          66.3624   93.7054   14.4543 N.ar    1  UNL1       -0.1416
      9 C          65.5452   92.4533   14.3349 C.ar    1  UNL1        0.1333
     10 S          65.1072   91.4399   15.3503 S.2     1  UNL1       -0.0604
     11 C          64.3010   90.3921   14.6416 C.ar    1  UNL1        0.0971
     12 C          64.2408   90.7579   13.1882 C.ar    1  UNL1        0.0538
     13 N          63.5355   89.9855   12.1130 N.pl3   1  UNL1       -0.3564
     14 C          65.0098   92.0318   12.9986 C.ar    1  UNL1        0.0363
     15 C          65.2915   92.8625   11.7818 C.ar    1  UNL1       -0.0033
     16 C          64.7561   92.4410   10.4455 C.3     1  UNL1        0.0324
     17 H          63.0551   89.1559   12.3374 H       1  UNL1        0.1424
     18 H          63.5530   90.3080   11.1830 H       1  UNL1        0.1424
     19 C          63.6923   86.6448   15.7981 C.3     1  UNL1        0.1166
     20 C          63.5149   85.3845   15.0042 C.ar    1  UNL1       -0.0026
     21 C          62.5778   84.3184   15.4890 C.ar    1  UNL1       -0.0026
     22 C          62.4005   83.0581   14.6951 C.ar    1  UNL1       -0.0003
     23 C          63.1603   82.8640   13.4164 C.ar    1  UNL1        0.0001
     24 C          64.0975   83.9302   12.9317 C.ar    1  UNL1       -0.0003
     25 C          64.2748   85.1904   13.7256 C.ar    1  UNL1       -0.0026
     26 C          62.9830   81.6037   12.6225 C.ar    1  UNL1        0.0031
     27 C          62.5913   80.3311   13.3132 C.ar    1  UNL1        0.0207
     28 C          62.4140   79.0708   12.5193 C.ar    1  UNL1        0.0989
     29 N          62.6283   79.0831   11.0347 N.ar    1  UNL1       -0.2423
     30 C          63.0199   80.3558   10.3441 C.ar    1  UNL1        0.0989
     31 C          63.1973   81.6161   11.1380 C.ar    1  UNL1        0.0207
@<TRIPOS>BOND
     1     5     6    1
     2     6     7   ar
     3     7     8   ar
     4     8     9   ar
     5     9    10   ar
     6    10    11   ar
     7    11     1    1
     8     1     2    2
     9     1     3   am
    10     3    19    1
    11    19    20    1
    12    20    21   ar
    13    21    22   ar
    14    22    23   ar
    15    23    26    1
    16    26    27   ar
    17    27    28   ar
    18    28    29   ar
    19    29    30   ar
    20    30    31   ar
    21    23    24   ar
    22    24    25   ar
    23    11    12   ar
    24    12    13    1
    25    12    14   ar
    26    14    15   ar
    27    15    16    1
    28    15     6   ar
    29    14     9   ar
    30    25    20   ar
    31    31    26   ar
    32     3     4    1
    33    13    17    1
    34    13    18    1
@<TRIPOS>MOLECULE
*****
 31 34 0 0 0
SMALL
GASTEIGER

@<TRIPOS>ATOM
      1 C          63.6289   86.9104   14.0771 C.2     1  UNL1        0.2534
      2 O          63.8434   87.0205   15.5576 O.2     1  UNL1       -0.2695
      3 N          63.5485   88.1502   13.2367 N.am    1  UNL1       -0.2965
      4 H          63.4077   88.0779   12.2650 H       1  UNL1        0.1501
      5 C          62.4272   79.4138   12.0819 C.3     1  UNL1        0.0537
      6 C          62.7997   80.8639   11.9898 C.ar    1  UNL1        0.0771
      7 N          63.3123   81.4259   10.6971 N.ar    1  UNL1       -0.1522
      8 N          63.6847   82.8760   10.6050 N.ar    1  UNL1       -0.1416
      9 C          63.5446   83.7641   11.8056 C.ar    1  UNL1        0.1333
     10 S          63.8306   85.2216   12.0149 S.2     1  UNL1       -0.0604
     11 C          63.4947   85.5604   13.4370 C.ar    1  UNL1        0.0971
     12 C          63.0012   84.3122   14.1067 C.ar    1  UNL1        0.0538
     13 N          62.5551   84.1948   15.5340 N.pl3   1  UNL1       -0.3564
     14 C          63.0320   83.2020   13.0984 C.ar    1  UNL1        0.0363
     15 C          62.6595   81.7519   13.1905 C.ar    1  UNL1       -0.0033
     16 C          62.1469   81.1899   14.4834 C.3     1  UNL1        0.0324
     17 H          62.5713   84.9848   16.1214 H       1  UNL1        0.1424
     18 H          62.2462   83.3279   15.8835 H       1  UNL1        0.1424
     19 C          63.6827   89.5001   13.8767 C.3     1  UNL1        0.1166
     20 C          64.3146   90.6300   13.1190 C.ar    1  UNL1       -0.0026
     21 C          63.8752   90.9310   11.7167 C.ar    1  UNL1       -0.0026
     22 C          64.5070   92.0609   10.9591 C.ar    1  UNL1       -0.0003
     23 C          65.5783   92.8897   11.6036 C.ar    1  UNL1        0.0001
     24 C          66.0177   92.5887   13.0058 C.ar    1  UNL1       -0.0003
     25 C          65.3858   91.4589   13.7635 C.ar    1  UNL1       -0.0026
     26 C          66.2102   94.0196   10.8458 C.ar    1  UNL1        0.0031
     27 C          67.0089   93.7384    9.6078 C.ar    1  UNL1        0.0207
     28 C          67.6407   94.8683    8.8500 C.ar    1  UNL1        0.0989
     29 N          67.4738   96.2794    9.3304 N.ar    1  UNL1       -0.2423
     30 C          66.6751   96.5607   10.5686 C.ar    1  UNL1        0.0989
     31 C          66.0433   95.4308   11.3262 C.ar    1  UNL1        0.0207
@<TRIPOS>BOND
     1     5     6    1
     2     6     7   ar
     3     7     8   ar
     4     8     9   ar
     5     9    10   ar
     6    10    11   ar
     7    11     1    1
     8     1     2    2
     9     1     3   am
    10     3    19    1
    11    19    20    1
    12    20    21   ar
    13    21    22   ar
    14    22    23   ar
    15    23    26    1
    16    26    27   ar
    17    27    28   ar
    18    28    29   ar
    19    29    30   ar
    20    30    31   ar
    21    23    24   ar
    22    24    25   ar
    23    11    12   ar
    24    12    13    1
    25    12    14   ar
    26    14    15   ar
    27    15    16    1
    28    15     6   ar
    29    14     9   ar
    30    25    20   ar
    31    31    26   ar
    32     3     4    1
    33    13    17    1
    34    13    18    1
@<TRIPOS>MOLECULE
*****
 31 34 0 0 0
SMALL
GASTEIGER

@<TRIPOS>ATOM
      1 C          62.2403   87.3024   11.2237 C.2     1  UNL1        0.2534
      2 O          62.4287   87.8093    9.8246 O.2     1  UNL1       -0.2695
      3 N          61.7690   88.2331   12.3015 N.am    1  UNL1       -0.2965
      4 H          61.6453   87.9004   13.2198 H       1  UNL1        0.1501
      5 C          64.1897   80.3183   14.2314 C.3     1  UNL1        0.0537
      6 C          63.6965   81.3628   13.2745 C.ar    1  UNL1        0.0771
      7 N          63.1998   80.9618   11.9171 N.ar    1  UNL1       -0.1522
      8 N          62.7066   82.0063   10.9602 N.ar    1  UNL1       -0.1416
      9 C          62.7100   83.4518   11.3606 C.ar    1  UNL1        0.1333
     10 S          62.2876   84.6952   10.6357 S.2     1  UNL1       -0.0604
     11 C          62.5231   85.8647   11.5450 C.ar    1  UNL1        0.0971
     12 C          63.0911   85.3441   12.8320 C.ar    1  UNL1        0.0538
     13 N          63.4760   86.1697   14.0237 N.pl3   1  UNL1       -0.3564
     14 C          63.2066   83.8528   12.7180 C.ar    1  UNL1        0.0363
     15 C          63.6998   82.8083   13.6749 C.ar    1  UNL1       -0.0033
     16 C          64.1964   83.2094   15.0324 C.3     1  UNL1        0.0324
     17 H          63.3622   87.1474   14.0027 H       1  UNL1        0.1424
     18 H          63.8424   85.7339   14.8269 H       1  UNL1        0.1424
     19 C          61.4862   89.6706   11.9802 C.3     1  UNL1        0.1166
     20 C          62.6076   90.5858   11.5862 C.ar    1  UNL1       -0.0026
     21 C          63.6375   90.9892   12.5993 C.ar    1  UNL1       -0.0026
     22 C          64.7588   91.9043   12.2053 C.ar    1  UNL1       -0.0003
     23 C          64.8502   92.4159   10.7982 C.ar    1  UNL1        0.0001
     24 C          63.8202   92.0125    9.7851 C.ar    1  UNL1       -0.0003
     25 C          62.6989   91.0974   10.1791 C.ar    1  UNL1       -0.0026
     26 C          65.9716   93.3310   10.4042 C.ar    1  UNL1        0.0031
     27 C          65.8278   94.8134   10.5826 C.ar    1  UNL1        0.0207
     28 C          66.9492   95.7285   10.1886 C.ar    1  UNL1        0.0989
     29 N          68.2143   95.1612    9.6163 N.ar    1  UNL1       -0.2423
     30 C          68.3580   93.6787    9.4379 C.ar    1  UNL1        0.0989
     31 C          67.2367   92.7637    9.8319 C.ar    1  UNL1        0.0207
@<TRIPOS>BOND
     1     5     6    1
     2     6     7   ar
     3     7     8   ar
     4     8     9   ar
     5     9    10   ar
     6    10    11   ar
     7    11     1    1
     8     1     2    2
     9     1     3   am
    10     3    19    1
    11    19    20    1
    12    20    21   ar
    13    21    22   ar
    14    22    23   ar
    15    23    26    1
    16    26    27   ar
    17    27    28   ar
    18    28    29   ar
    19    29    30   ar
    20    30    31   ar
    21    23    24   ar
    22    24    25   ar
    23    11    12   ar
    24    12    13    1
    25    12    14   ar
    26    14    15   ar
    27    15    16    1
    28    15     6   ar
    29    14     9   ar
    30    25    20   ar
    31    31    26   ar
    32     3     4    1
    33    13    17    1
    34    13    18    1
@<TRIPOS>MOLECULE
*****
 31 34 0 0 0
SMALL
GASTEIGER

@<TRIPOS>ATOM
      1 C          63.8744   89.3034   14.4225 C.2     1  UNL1        0.2534
      2 O          62.7192   89.4235   15.3717 O.2     1  UNL1       -0.2695
      3 N          64.6110   88.0027   14.2982 N.am    1  UNL1       -0.2965
      4 H          65.3692   87.9239   13.6752 H       1  UNL1        0.1501
      5 C          66.8032   95.9063   11.3487 C.3     1  UNL1        0.0537
      6 C          66.0515   94.6150   11.4811 C.ar    1  UNL1        0.0771
      7 N          65.2731   94.0776   10.3169 N.ar    1  UNL1       -0.1522
      8 N          64.5214   92.7863   10.4493 N.ar    1  UNL1       -0.1416
      9 C          64.5481   92.0325   11.7458 C.ar    1  UNL1        0.1333
     10 S          63.9094   90.7435   12.1707 S.2     1  UNL1       -0.0604
     11 C          64.2931   90.4842   13.5975 C.ar    1  UNL1        0.0971
     12 C          65.1688   91.6131   14.0544 C.ar    1  UNL1        0.0538
     13 N          65.7798   91.7594   15.4165 N.pl3   1  UNL1       -0.3564
     14 C          65.3264   92.5699   12.9100 C.ar    1  UNL1        0.0363
     15 C          66.0781   93.8612   12.7776 C.ar    1  UNL1       -0.0033
     16 C          66.8565   94.3987   13.9418 C.3     1  UNL1        0.0324
     17 H          65.6172   91.0747   16.1050 H       1  UNL1        0.1424
     18 H          66.3433   92.5401   15.6220 H       1  UNL1        0.1424
     19 C          64.1923   86.8220   15.1232 C.3     1  UNL1        0.1166
     20 C          63.9200   85.5035   14.4617 C.ar    1  UNL1       -0.0026
     21 C          63.3913   85.4634   13.0586 C.ar    1  UNL1       -0.0026
     22 C          63.1190   84.1449   12.3972 C.ar    1  UNL1       -0.0003
     23 C          63.3755   82.8666   13.1389 C.ar    1  UNL1        0.0001
     24 C          63.9042   82.9067   14.5420 C.ar    1  UNL1       -0.0003
     25 C          64.1765   84.2252   15.2034 C.ar    1  UNL1       -0.0026
     26 C          63.1032   81.5481   12.4774 C.ar    1  UNL1        0.0031
     27 C          62.6927   80.3652   13.3033 C.ar    1  UNL1        0.0207
     28 C          62.4204   79.0468   12.6418 C.ar    1  UNL1        0.0989
     29 N          62.5586   78.9112   11.1544 N.ar    1  UNL1       -0.2423
     30 C          62.9691   80.0942   10.3284 C.ar    1  UNL1        0.0989
     31 C          63.2414   81.4126   10.9899 C.ar    1  UNL1        0.0207
@<TRIPOS>BOND
     1     5     6    1
     2     6     7   ar
     3     7     8   ar
     4     8     9   ar
     5     9    10   ar
     6    10    11   ar
     7    11     1    1
     8     1     2    2
     9     1     3   am
    10     3    19    1
    11    19    20    1
    12    20    21   ar
    13    21    22   ar
    14    22    23   ar
    15    23    26    1
    16    26    27   ar
    17    27    28   ar
    18    28    29   ar
    19    29    30   ar
    20    30    31   ar
    21    23    24   ar
    22    24    25   ar
    23    11    12   ar
    24    12    13    1
    25    12    14   ar
    26    14    15   ar
    27    15    16    1
    28    15     6   ar
    29    14     9   ar
    30    25    20   ar
    31    31    26   ar
    32     3     4    1
    33    13    17    1
    34    13    18    1
