@<TRIPOS>MOLECULE
*****
 33 37 0 0 0
SMALL
GASTEIGER

@<TRIPOS>ATOM
      1 C          64.2427   89.6019   14.1456 C.ar    1  UNL1        0.2007
      2 N          64.0204   88.2476   13.5403 N.ar    1  UNL1       -0.2090
      3 C          63.5465   87.3269   14.6255 C.ar    1  UNL1        0.1415
      4 N          63.4759   88.1122   15.9016 N.ar    1  UNL1       -0.2360
      5 N          63.9062   89.5182   15.6049 N.ar    1  UNL1       -0.1472
      6 C          63.0290   87.4455   17.1688 C.3     1  UNL1        0.1289
      7 C          62.6526   85.9936   17.1599 C.3     1  UNL1        0.0272
      8 C          62.7232   85.2083   15.8838 C.3     1  UNL1        0.0140
      9 C          63.1701   85.8749   14.6166 C.3     1  UNL1        0.0806
     10 C          66.2204   92.9425   13.3215 C.ar    1  UNL1        0.2417
     11 N          65.7451   91.7193   14.0480 N.ar    1  UNL1       -0.2073
     12 C          64.7181   90.8251   13.4190 C.ar    1  UNL1        0.1219
     13 C          64.1664   91.1541   12.0636 C.ar    1  UNL1        0.0240
     14 C          64.6417   92.3773   11.3371 C.ar    1  UNL1        0.0240
     15 C          65.6688   93.2715   11.9660 C.ar    1  UNL1        0.1189
     16 N          66.1441   94.4947   11.2395 N.ar    1  UNL1       -0.2826
     17 C          66.1536   95.8936   11.7807 C.ar    1  UNL1        0.1826
     18 N          66.7088   96.7973   10.7199 N.ar    1  UNL1       -0.2280
     19 C          67.0424   95.9568    9.5232 C.ar    1  UNL1        0.0786
     20 C          67.6231   96.4524    8.2319 C.3     1  UNL1        0.0538
     21 C          66.6934   94.5338    9.8443 C.ar    1  UNL1        0.0963
     22 C          67.8049   93.5034   15.3027 C.3     1  UNL1        0.2543
     23 O          67.2475   93.8367   13.9505 O.3     1  UNL1       -0.4551
     24 C          63.2407   85.0896   13.3406 C.ar    1  UNL1       -0.0114
     25 C          62.6352   85.6431   12.0848 C.ar    1  UNL1       -0.0039
     26 C          62.7058   84.8578   10.8088 C.ar    1  UNL1       -0.0003
     27 C          63.3818   83.5190   10.7885 C.ar    1  UNL1       -0.0001
     28 C          63.9872   82.9655   12.0442 C.ar    1  UNL1        0.0035
     29 C          63.9167   83.7508   13.3203 C.ar    1  UNL1        0.0679
     30 C          64.5222   83.1972   14.5761 C.3     1  UNL1        0.4183
     31 F          65.1276   82.6436   15.8318 F       1  UNL1       -0.1659
     32 F          65.6616   84.1649   14.4534 F       1  UNL1       -0.1659
     33 F          63.3828   82.2294   14.6988 F       1  UNL1       -0.1659
@<TRIPOS>BOND
     1    22    23    1
     2    23    10    1
     3    10    11   ar
     4    11    12   ar
     5    12     1    1
     6     1     2   ar
     7     2     3   ar
     8     3     4   ar
     9     4     5   ar
    10     4     6    1
    11     6     7    1
    12     7     8    1
    13     8     9    1
    14     9    24    1
    15    24    25   ar
    16    25    26   ar
    17    26    27   ar
    18    27    28   ar
    19    28    29   ar
    20    29    30    1
    21    30    31    1
    22    30    32    1
    23    30    33    1
    24    12    13   ar
    25    13    14   ar
    26    14    15   ar
    27    15    16    1
    28    16    17   ar
    29    17    18   ar
    30    18    19   ar
    31    19    20    1
    32    19    21   ar
    33    15    10   ar
    34    21    16   ar
    35     5     1   ar
    36    29    24   ar
    37     9     3    1
@<TRIPOS>MOLECULE
*****
 33 37 0 0 0
SMALL
GASTEIGER

@<TRIPOS>ATOM
      1 C          64.2367   89.1861   14.0578 C.ar    1  UNL1        0.2007
      2 N          64.1876   87.8099   13.4634 N.ar    1  UNL1       -0.2090
      3 C          63.6620   86.8717   14.5091 C.ar    1  UNL1        0.1415
      4 N          63.3862   87.6681   15.7499 N.ar    1  UNL1       -0.2360
      5 N          63.7414   89.0985   15.4710 N.ar    1  UNL1       -0.1472
      6 C          62.8473   86.9880   16.9734 C.3     1  UNL1        0.1289
      7 C          62.5842   85.5114   16.9561 C.3     1  UNL1        0.0272
      8 C          62.8600   84.7149   15.7152 C.3     1  UNL1        0.0140
      9 C          63.3989   85.3951   14.4918 C.3     1  UNL1        0.0806
     10 C          66.3326   92.4460   13.2031 C.ar    1  UNL1        0.2417
     11 N          65.8696   91.2007   13.8995 N.ar    1  UNL1       -0.2073
     12 C          64.6997   90.4314   13.3614 C.ar    1  UNL1        0.1219
     13 C          63.9930   90.9073   12.1270 C.ar    1  UNL1        0.0240
     14 C          64.4560   92.1525   11.4306 C.ar    1  UNL1        0.0240
     15 C          65.6259   92.9218   11.9686 C.ar    1  UNL1        0.1189
     16 N          66.0889   94.1671   11.2722 N.ar    1  UNL1       -0.2826
     17 C          66.1155   95.5473   11.8589 C.ar    1  UNL1        0.1826
     18 N          66.6497   96.4840   10.8161 N.ar    1  UNL1       -0.2280
     19 C          66.9532   95.6826    9.5850 C.ar    1  UNL1        0.0786
     20 C          67.5063   96.2190    8.2980 C.3     1  UNL1        0.0538
     21 C          66.6066   94.2507    9.8669 C.ar    1  UNL1        0.0963
     22 C          67.6181   93.4712   15.2147 C.3     1  UNL1        0.2543
     23 O          67.5025   93.2153   13.7413 O.3     1  UNL1       -0.4551
     24 C          63.6746   84.5986   13.2510 C.ar    1  UNL1       -0.0114
     25 C          64.6788   83.4848   13.2824 C.ar    1  UNL1       -0.0039
     26 C          64.9546   82.6884   12.0416 C.ar    1  UNL1       -0.0003
     27 C          64.2261   83.0057   10.7693 C.ar    1  UNL1       -0.0001
     28 C          63.2219   84.1194   10.7379 C.ar    1  UNL1        0.0035
     29 C          62.9462   84.9159   11.9787 C.ar    1  UNL1        0.0679
     30 C          61.9419   86.0297   11.9473 C.3     1  UNL1        0.4183
     31 F          60.9376   87.1434   11.9158 F       1  UNL1       -0.1659
     32 F          62.7472   86.7261   10.8907 F       1  UNL1       -0.1659
     33 F          61.1365   85.3333   13.0038 F       1  UNL1       -0.1659
@<TRIPOS>BOND
     1    22    23    1
     2    23    10    1
     3    10    11   ar
     4    11    12   ar
     5    12     1    1
     6     1     2   ar
     7     2     3   ar
     8     3     4   ar
     9     4     5   ar
    10     4     6    1
    11     6     7    1
    12     7     8    1
    13     8     9    1
    14     9    24    1
    15    24    25   ar
    16    25    26   ar
    17    26    27   ar
    18    27    28   ar
    19    28    29   ar
    20    29    30    1
    21    30    31    1
    22    30    32    1
    23    30    33    1
    24    12    13   ar
    25    13    14   ar
    26    14    15   ar
    27    15    16    1
    28    16    17   ar
    29    17    18   ar
    30    18    19   ar
    31    19    20    1
    32    19    21   ar
    33    15    10   ar
    34    21    16   ar
    35     5     1   ar
    36    29    24   ar
    37     9     3    1
@<TRIPOS>MOLECULE
*****
 33 37 0 0 0
SMALL
GASTEIGER

@<TRIPOS>ATOM
      1 C          63.7707   87.5527   14.4423 C.ar    1  UNL1        0.2007
      2 N          64.2719   88.7353   13.6676 N.ar    1  UNL1       -0.2090
      3 C          64.2862   89.9199   14.5877 C.ar    1  UNL1        0.1415
      4 N          63.7938   89.4694   15.9310 N.ar    1  UNL1       -0.2360
      5 N          63.4752   88.0064   15.8412 N.ar    1  UNL1       -0.1472
      6 C          63.6991   90.4496   17.0625 C.3     1  UNL1        0.1289
      7 C          64.0968   91.8802   16.8506 C.3     1  UNL1        0.0272
      8 C          64.5892   92.3308   15.5073 C.3     1  UNL1        0.0140
      9 C          64.6839   91.3506   14.3758 C.3     1  UNL1        0.0806
     10 C          62.8324   84.5545   12.0174 C.ar    1  UNL1        0.2417
     11 N          63.0073   85.9464   12.5484 N.ar    1  UNL1       -0.2073
     12 C          63.5957   86.1607   13.9114 C.ar    1  UNL1        0.1219
     13 C          64.0092   84.9832   14.7434 C.ar    1  UNL1        0.0240
     14 C          63.8342   83.5912   14.2124 C.ar    1  UNL1        0.0240
     15 C          63.2458   83.3769   12.8495 C.ar    1  UNL1        0.1189
     16 N          63.0708   81.9849   12.3185 N.ar    1  UNL1       -0.2826
     17 C          62.7414   80.7668   13.1295 C.ar    1  UNL1        0.1826
     18 N          62.6615   79.5958   12.1956 N.ar    1  UNL1       -0.2280
     19 C          62.9416   80.0901   10.8073 C.ar    1  UNL1        0.0786
     20 C          62.9646   79.2546    9.5618 C.3     1  UNL1        0.0538
     21 C          63.1945   81.5667   10.8833 C.ar    1  UNL1        0.0963
     22 C          62.6890   85.1921    9.5029 C.3     1  UNL1        0.2543
     23 O          62.2439   84.3401   10.6543 O.3     1  UNL1       -0.4551
     24 C          65.1763   91.8011   13.0325 C.ar    1  UNL1       -0.0114
     25 C          64.3041   91.6433   11.8224 C.ar    1  UNL1       -0.0039
     26 C          64.7965   92.0938   10.4791 C.ar    1  UNL1       -0.0003
     27 C          66.1611   92.7022   10.3458 C.ar    1  UNL1       -0.0001
     28 C          67.0333   92.8600   11.5559 C.ar    1  UNL1        0.0035
     29 C          66.5409   92.4095   12.8992 C.ar    1  UNL1        0.0679
     30 C          67.4131   92.5673   14.1094 C.3     1  UNL1        0.4183
     31 F          68.2854   92.7251   15.3194 F       1  UNL1       -0.1659
     32 F          66.9415   93.9827   14.2647 F       1  UNL1       -0.1659
     33 F          67.8848   91.1519   13.9540 F       1  UNL1       -0.1659
@<TRIPOS>BOND
     1    22    23    1
     2    23    10    1
     3    10    11   ar
     4    11    12   ar
     5    12     1    1
     6     1     2   ar
     7     2     3   ar
     8     3     4   ar
     9     4     5   ar
    10     4     6    1
    11     6     7    1
    12     7     8    1
    13     8     9    1
    14     9    24    1
    15    24    25   ar
    16    25    26   ar
    17    26    27   ar
    18    27    28   ar
    19    28    29   ar
    20    29    30    1
    21    30    31    1
    22    30    32    1
    23    30    33    1
    24    12    13   ar
    25    13    14   ar
    26    14    15   ar
    27    15    16    1
    28    16    17   ar
    29    17    18   ar
    30    18    19   ar
    31    19    20    1
    32    19    21   ar
    33    15    10   ar
    34    21    16   ar
    35     5     1   ar
    36    29    24   ar
    37     9     3    1
@<TRIPOS>MOLECULE
*****
 33 37 0 0 0
SMALL
GASTEIGER

@<TRIPOS>ATOM
      1 C          64.2045   89.3474   14.3495 C.ar    1  UNL1        0.2007
      2 N          63.9690   87.9940   13.7471 N.ar    1  UNL1       -0.2090
      3 C          63.4863   87.0803   14.8344 C.ar    1  UNL1        0.1415
      4 N          63.4235   87.8690   16.1088 N.ar    1  UNL1       -0.2360
      5 N          63.8673   89.2701   15.8091 N.ar    1  UNL1       -0.1472
      6 C          62.9702   87.2094   17.3774 C.3     1  UNL1        0.1289
      7 C          62.5797   85.7611   17.3716 C.3     1  UNL1        0.0272
      8 C          62.6426   84.9725   16.0972 C.3     1  UNL1        0.0140
      9 C          63.0958   85.6321   14.8286 C.3     1  UNL1        0.0806
     10 C          64.6346   92.1096   11.5325 C.ar    1  UNL1        0.2417
     11 N          64.1475   90.8926   12.2617 N.ar    1  UNL1       -0.2073
     12 C          64.6916   90.5644   13.6204 C.ar    1  UNL1        0.1219
     13 C          65.7229   91.4533   14.2500 C.ar    1  UNL1        0.0240
     14 C          66.2100   92.6703   13.5209 C.ar    1  UNL1        0.0240
     15 C          65.6659   92.9984   12.1621 C.ar    1  UNL1        0.1189
     16 N          66.1530   94.2154   11.4330 N.ar    1  UNL1       -0.2826
     17 C          66.1761   95.6153   11.9712 C.ar    1  UNL1        0.1826
     18 N          66.7399   96.5113   10.9085 N.ar    1  UNL1       -0.2280
     19 C          67.0653   95.6651    9.7135 C.ar    1  UNL1        0.0786
     20 C          67.6507   96.1522    8.4212 C.3     1  UNL1        0.0538
     21 C          66.7026   94.2462   10.0376 C.ar    1  UNL1        0.0963
     22 C          63.0083   91.5894    9.5743 C.3     1  UNL1        0.2543
     23 O          64.0905   92.4377   10.1737 O.3     1  UNL1       -0.4551
     24 C          63.1587   84.8434   13.5542 C.ar    1  UNL1       -0.0114
     25 C          62.5076   85.3735   12.3113 C.ar    1  UNL1       -0.0039
     26 C          62.5704   84.5849   11.0369 C.ar    1  UNL1       -0.0003
     27 C          63.2843   83.2661   11.0055 C.ar    1  UNL1       -0.0001
     28 C          63.9354   82.7359   12.2484 C.ar    1  UNL1        0.0035
     29 C          63.8726   83.5246   13.5228 C.ar    1  UNL1        0.0679
     30 C          64.5238   82.9944   14.7658 C.3     1  UNL1        0.4183
     31 F          65.1749   82.4643   16.0087 F       1  UNL1       -0.1659
     32 F          63.4362   81.9699   14.8986 F       1  UNL1       -0.1659
     33 F          65.6113   84.0188   14.6330 F       1  UNL1       -0.1659
@<TRIPOS>BOND
     1    22    23    1
     2    23    10    1
     3    10    11   ar
     4    11    12   ar
     5    12     1    1
     6     1     2   ar
     7     2     3   ar
     8     3     4   ar
     9     4     5   ar
    10     4     6    1
    11     6     7    1
    12     7     8    1
    13     8     9    1
    14     9    24    1
    15    24    25   ar
    16    25    26   ar
    17    26    27   ar
    18    27    28   ar
    19    28    29   ar
    20    29    30    1
    21    30    31    1
    22    30    32    1
    23    30    33    1
    24    12    13   ar
    25    13    14   ar
    26    14    15   ar
    27    15    16    1
    28    16    17   ar
    29    17    18   ar
    30    18    19   ar
    31    19    20    1
    32    19    21   ar
    33    15    10   ar
    34    21    16   ar
    35     5     1   ar
    36    29    24   ar
    37     9     3    1
@<TRIPOS>MOLECULE
*****
 33 37 0 0 0
SMALL
GASTEIGER

@<TRIPOS>ATOM
      1 C          62.9277   89.4832   11.4520 C.ar    1  UNL1        0.2007
      2 N          62.9402   88.0000   11.2282 N.ar    1  UNL1       -0.2090
      3 C          61.8244   87.6644   10.2834 C.ar    1  UNL1        0.1415
      4 N          61.1224   88.9401    9.9234 N.ar    1  UNL1       -0.2360
      5 N          61.8043   90.0642   10.6456 N.ar    1  UNL1       -0.1472
      6 C          59.9529   88.9135    8.9845 C.3     1  UNL1        0.1289
      7 C          59.4855   87.6110    8.4056 C.3     1  UNL1        0.0272
      8 C          60.1875   86.3353    8.7656 C.3     1  UNL1        0.0140
      9 C          61.3570   86.3620    9.7046 C.3     1  UNL1        0.0806
     10 C          65.3729   92.3315   12.7396 C.ar    1  UNL1        0.2417
     11 N          64.4278   91.5642   11.8632 N.ar    1  UNL1       -0.2073
     12 C          63.8728   90.2505   12.3283 C.ar    1  UNL1        0.1219
     13 C          64.2629   89.7043   13.6697 C.ar    1  UNL1        0.0240
     14 C          65.2079   90.4717   14.5461 C.ar    1  UNL1        0.0240
     15 C          65.7630   91.7853   14.0810 C.ar    1  UNL1        0.1189
     16 N          66.7080   92.5527   14.9573 N.ar    1  UNL1       -0.2826
     17 C          66.4285   93.0270   16.3526 C.ar    1  UNL1        0.1826
     18 N          67.6463   93.7480   16.8499 N.ar    1  UNL1       -0.2280
     19 C          68.6785   93.7192   15.7619 C.ar    1  UNL1        0.0786
     20 C          70.0498   94.3231   15.8313 C.3     1  UNL1        0.0538
     21 C          68.0986   92.9805   14.5922 C.ar    1  UNL1        0.0963
     22 C          65.7492   94.0719   10.8476 C.3     1  UNL1        0.2543
     23 O          65.9279   93.6452   12.2744 O.3     1  UNL1       -0.4551
     24 C          62.0590   85.0862   10.0646 C.ar    1  UNL1       -0.0114
     25 C          62.0049   84.5719   11.4726 C.ar    1  UNL1       -0.0039
     26 C          62.7069   83.2962   11.8327 C.ar    1  UNL1       -0.0003
     27 C          63.4631   82.5347   10.7847 C.ar    1  UNL1       -0.0001
     28 C          63.5172   83.0490    9.3767 C.ar    1  UNL1        0.0035
     29 C          62.8152   84.3247    9.0166 C.ar    1  UNL1        0.0679
     30 C          62.8694   84.8390    7.6085 C.3     1  UNL1        0.4183
     31 F          62.9236   85.3533    6.2005 F       1  UNL1       -0.1659
     32 F          61.7950   83.8698    7.2132 F       1  UNL1       -0.1659
     33 F          63.9438   85.8082    8.0039 F       1  UNL1       -0.1659
@<TRIPOS>BOND
     1    22    23    1
     2    23    10    1
     3    10    11   ar
     4    11    12   ar
     5    12     1    1
     6     1     2   ar
     7     2     3   ar
     8     3     4   ar
     9     4     5   ar
    10     4     6    1
    11     6     7    1
    12     7     8    1
    13     8     9    1
    14     9    24    1
    15    24    25   ar
    16    25    26   ar
    17    26    27   ar
    18    27    28   ar
    19    28    29   ar
    20    29    30    1
    21    30    31    1
    22    30    32    1
    23    30    33    1
    24    12    13   ar
    25    13    14   ar
    26    14    15   ar
    27    15    16    1
    28    16    17   ar
    29    17    18   ar
    30    18    19   ar
    31    19    20    1
    32    19    21   ar
    33    15    10   ar
    34    21    16   ar
    35     5     1   ar
    36    29    24   ar
    37     9     3    1
@<TRIPOS>MOLECULE
*****
 33 37 0 0 0
SMALL
GASTEIGER

@<TRIPOS>ATOM
      1 C          62.3333   86.9983   11.6596 C.ar    1  UNL1        0.2007
      2 N          62.2648   85.5448   12.0236 N.ar    1  UNL1       -0.2090
      3 C          63.1356   85.3263   13.2253 C.ar    1  UNL1        0.1415
      4 N          63.7422   86.6448   13.6040 N.ar    1  UNL1       -0.2360
      5 N          63.2464   87.6782   12.6363 N.ar    1  UNL1       -0.1472
      6 C          64.6677   86.7342   14.7810 C.3     1  UNL1        0.1289
      7 C          64.9866   85.5050   15.5793 C.3     1  UNL1        0.0272
      8 C          64.3800   84.1864   15.2006 C.3     1  UNL1        0.0140
      9 C          63.4545   84.0971   14.0236 C.3     1  UNL1        0.0806
     10 C          60.2860   87.4776    8.2937 C.ar    1  UNL1        0.2417
     11 N          61.0045   86.8195    9.4342 N.ar    1  UNL1       -0.2073
     12 C          61.6149   87.6564   10.5191 C.ar    1  UNL1        0.1219
     13 C          61.5068   89.1514   10.4635 C.ar    1  UNL1        0.0240
     14 C          60.7883   89.8096    9.3230 C.ar    1  UNL1        0.0240
     15 C          60.1780   88.9726    8.2381 C.ar    1  UNL1        0.1189
     16 N          59.4595   89.6308    7.0976 N.ar    1  UNL1       -0.2826
     17 C          58.0356   89.3865    6.6940 C.ar    1  UNL1        0.1826
     18 N          57.7349   90.2535    5.5075 N.ar    1  UNL1       -0.2280
     19 C          58.9729   91.0335    5.1777 C.ar    1  UNL1        0.0786
     20 C          59.1194   92.0245    4.0612 C.3     1  UNL1        0.0538
     21 C          60.0388   90.6487    6.1605 C.ar    1  UNL1        0.0963
     22 C          60.2236   85.2751    6.9170 C.3     1  UNL1        0.2543
     23 O          59.6757   86.6406    7.2088 O.3     1  UNL1       -0.4551
     24 C          62.8478   82.7785   13.6449 C.ar    1  UNL1       -0.0114
     25 C          61.8382   82.1311   14.5457 C.ar    1  UNL1       -0.0039
     26 C          61.2316   80.8125   14.1669 C.ar    1  UNL1       -0.0003
     27 C          61.6345   80.1414   12.8875 C.ar    1  UNL1       -0.0001
     28 C          62.6442   80.7889   11.9867 C.ar    1  UNL1        0.0035
     29 C          63.2508   82.1074   12.3654 C.ar    1  UNL1        0.0679
     30 C          64.2605   82.7548   11.4645 C.3     1  UNL1        0.4183
     31 F          65.2701   83.4022   10.5637 F       1  UNL1       -0.1659
     32 F          63.1543   83.2521   10.5820 F       1  UNL1       -0.1659
     33 F          65.3667   82.2575   12.3471 F       1  UNL1       -0.1659
@<TRIPOS>BOND
     1    22    23    1
     2    23    10    1
     3    10    11   ar
     4    11    12   ar
     5    12     1    1
     6     1     2   ar
     7     2     3   ar
     8     3     4   ar
     9     4     5   ar
    10     4     6    1
    11     6     7    1
    12     7     8    1
    13     8     9    1
    14     9    24    1
    15    24    25   ar
    16    25    26   ar
    17    26    27   ar
    18    27    28   ar
    19    28    29   ar
    20    29    30    1
    21    30    31    1
    22    30    32    1
    23    30    33    1
    24    12    13   ar
    25    13    14   ar
    26    14    15   ar
    27    15    16    1
    28    16    17   ar
    29    17    18   ar
    30    18    19   ar
    31    19    20    1
    32    19    21   ar
    33    15    10   ar
    34    21    16   ar
    35     5     1   ar
    36    29    24   ar
    37     9     3    1
@<TRIPOS>MOLECULE
*****
 33 37 0 0 0
SMALL
GASTEIGER

@<TRIPOS>ATOM
      1 C          64.0492   87.8781   14.6034 C.ar    1  UNL1        0.2007
      2 N          64.9914   88.8681   13.9851 N.ar    1  UNL1       -0.2090
      3 C          64.9183   90.1373   14.7812 C.ar    1  UNL1        0.1415
      4 N          63.9309   89.9317   15.8916 N.ar    1  UNL1       -0.2360
      5 N          63.3939   88.5355   15.7817 N.ar    1  UNL1       -0.1472
      6 C          63.6485   91.0424   16.8593 C.3     1  UNL1        0.1289
      7 C          64.3534   92.3588   16.7166 C.3     1  UNL1        0.0272
      8 C          65.3407   92.5643   15.6063 C.3     1  UNL1        0.0140
      9 C          65.6232   91.4536   14.6386 C.3     1  UNL1        0.0806
     10 C          62.8560   84.8382   12.3484 C.ar    1  UNL1        0.2417
     11 N          63.0999   86.2395   12.8247 N.ar    1  UNL1       -0.2073
     12 C          63.8053   86.4769   14.1270 C.ar    1  UNL1        0.1219
     13 C          64.2668   85.3129   14.9530 C.ar    1  UNL1        0.0240
     14 C          64.0229   83.9116   14.4766 C.ar    1  UNL1        0.0240
     15 C          63.3175   83.6743   13.1743 C.ar    1  UNL1        0.1189
     16 N          63.0735   82.2730   12.6980 N.ar    1  UNL1       -0.2826
     17 C          62.6368   81.1164   13.5475 C.ar    1  UNL1        0.1826
     18 N          62.5169   79.9109   12.6630 N.ar    1  UNL1       -0.2280
     19 C          62.8795   80.3224   11.2669 C.ar    1  UNL1        0.0786
     20 C          62.8953   79.4306   10.0609 C.3     1  UNL1        0.0538
     21 C          63.2235   81.7822   11.2885 C.ar    1  UNL1        0.0963
     22 C          62.6219   85.2919    9.8009 C.3     1  UNL1        0.2543
     23 O          62.1505   84.6009   11.0460 O.3     1  UNL1       -0.4551
     24 C          66.6105   91.6592   13.5282 C.ar    1  UNL1       -0.0114
     25 C          68.0815   91.5625   13.8051 C.ar    1  UNL1       -0.0039
     26 C          69.0688   91.7681   12.6947 C.ar    1  UNL1       -0.0003
     27 C          68.5852   92.0704   11.3074 C.ar    1  UNL1       -0.0001
     28 C          67.1141   92.1671   11.0305 C.ar    1  UNL1        0.0035
     29 C          66.1268   91.9615   12.1409 C.ar    1  UNL1        0.0679
     30 C          64.6557   92.0583   11.8639 C.3     1  UNL1        0.4183
     31 F          63.1847   92.1550   11.5870 F       1  UNL1       -0.1659
     32 F          64.7503   93.5551   11.8845 F       1  UNL1       -0.1659
     33 F          64.5612   90.5615   11.8434 F       1  UNL1       -0.1659
@<TRIPOS>BOND
     1    22    23    1
     2    23    10    1
     3    10    11   ar
     4    11    12   ar
     5    12     1    1
     6     1     2   ar
     7     2     3   ar
     8     3     4   ar
     9     4     5   ar
    10     4     6    1
    11     6     7    1
    12     7     8    1
    13     8     9    1
    14     9    24    1
    15    24    25   ar
    16    25    26   ar
    17    26    27   ar
    18    27    28   ar
    19    28    29   ar
    20    29    30    1
    21    30    31    1
    22    30    32    1
    23    30    33    1
    24    12    13   ar
    25    13    14   ar
    26    14    15   ar
    27    15    16    1
    28    16    17   ar
    29    17    18   ar
    30    18    19   ar
    31    19    20    1
    32    19    21   ar
    33    15    10   ar
    34    21    16   ar
    35     5     1   ar
    36    29    24   ar
    37     9     3    1
