@<TRIPOS>MOLECULE
*****
 29 31 0 0 0
SMALL
GASTEIGER

@<TRIPOS>ATOM
      1 C          62.7327   85.0900   12.1094 C.3     1  UNL1        0.0527
      2 C          62.7021   86.5514   11.7729 C.ar    1  UNL1        0.0673
      3 N          62.9904   87.6800   12.7180 N.ar    1  UNL1       -0.2283
      4 C          62.8443   88.9670   11.9614 C.ar    1  UNL1        0.1652
      5 S          62.4656   88.6338   10.5488 S.2     1  UNL1       -0.0517
      6 C          62.3777   87.1409   10.4323 C.ar    1  UNL1        0.0456
      7 C          62.0270   86.3724    9.1926 C.ar    1  UNL1        0.0073
      8 C          60.6336   86.4344    8.6409 C.ar    1  UNL1        0.0018
      9 C          60.2830   85.6659    7.4014 C.ar    1  UNL1        0.0141
     10 C          61.3258   84.8355    6.7136 C.ar    1  UNL1        0.0415
     11 N          60.9751   84.0671    5.4740 N.pl3   1  UNL1       -0.3570
     12 C          62.7192   84.7736    7.2653 C.ar    1  UNL1        0.0141
     13 C          63.0698   85.5421    8.5049 C.ar    1  UNL1        0.0018
     14 H          60.0605   84.1077    5.1118 H       1  UNL1        0.1424
     15 H          61.6595   83.5221    5.0225 H       1  UNL1        0.1424
     16 N          63.0421   90.3452   12.5196 N.am    1  UNL1       -0.2627
     17 C          64.0024   90.5656   13.6506 C.2     1  UNL1        0.2479
     18 O          64.7649   89.4078   14.2235 O.2     1  UNL1       -0.2729
     19 H          62.5416   91.1050   12.1436 H       1  UNL1        0.1568
     20 C          64.2002   91.9437   14.2087 C.3     1  UNL1        0.1821
     21 N          65.5069   92.3148   14.8450 N.am    1  UNL1       -0.2350
     22 C          65.7403   92.5480   16.3083 C.2     1  UNL1        0.4054
     23 O          64.7079   92.4509   17.3922 O.2     1  UNL1       -0.2262
     24 O          67.1873   92.8951   16.4973 O.3     1  UNL1       -0.4327
     25 C          67.8481   92.8766   15.1509 C.3     1  UNL1        0.2298
     26 C          66.8096   92.5179   14.1297 C.3     1  UNL1        0.1227
     27 C          67.0343   92.3856   12.6526 C.3     1  UNL1        0.0220
     28 C          68.2294   91.6381   12.1397 C.3     1  UNL1        0.0018
     29 C          66.0640   93.0008   11.6882 C.3     1  UNL1        0.0018
@<TRIPOS>BOND
     1     1     2    1
     2     2     3   ar
     3     3     4   ar
     4     4    16    1
     5    16    17   am
     6    17    18    2
     7    17    20    1
     8    20    21    1
     9    21    22   am
    10    22    23    2
    11    22    24    1
    12    24    25    1
    13    25    26    1
    14    26    27    1
    15    27    28    1
    16    27    29    1
    17     4     5   ar
    18     5     6   ar
    19     6     7    1
    20     7     8   ar
    21     8     9   ar
    22     9    10   ar
    23    10    11    1
    24    10    12   ar
    25    12    13   ar
    26     6     2   ar
    27    13     7   ar
    28    26    21    1
    29    16    19    1
    30    11    14    1
    31    11    15    1
@<TRIPOS>MOLECULE
*****
 29 31 0 0 0
SMALL
GASTEIGER

@<TRIPOS>ATOM
      1 C          66.6449   93.5284   14.1063 C.3     1  UNL1        0.0527
      2 C          65.7333   92.6806   13.2695 C.ar    1  UNL1        0.0673
      3 N          64.8836   91.5472   13.7630 N.ar    1  UNL1       -0.2283
      4 C          64.1365   90.9834   12.5908 C.ar    1  UNL1        0.1652
      5 S          64.5244   91.7684   11.3729 S.2     1  UNL1       -0.0517
      6 C          65.5113   92.8173   11.7923 C.ar    1  UNL1        0.0456
      7 C          66.1620   93.8258   10.8925 C.ar    1  UNL1        0.0073
      8 C          65.8349   95.2824   11.0383 C.ar    1  UNL1        0.0018
      9 C          66.4856   96.2908   10.1385 C.ar    1  UNL1        0.0141
     10 C          67.4633   95.8427    9.0929 C.ar    1  UNL1        0.0415
     11 N          68.1139   96.8512    8.1931 N.pl3   1  UNL1       -0.3570
     12 C          67.7903   94.3861    8.9471 C.ar    1  UNL1        0.0141
     13 C          67.1397   93.3776    9.8469 C.ar    1  UNL1        0.0018
     14 H          67.8993   97.8072    8.2888 H       1  UNL1        0.1424
     15 H          68.7556   96.5571    7.5069 H       1  UNL1        0.1424
     16 N          63.1709   89.8362   12.6297 N.am    1  UNL1       -0.2627
     17 C          62.6049   89.2886   11.3531 C.2     1  UNL1        0.2479
     18 O          63.0045   89.8884   10.0374 O.2     1  UNL1       -0.2729
     19 H          62.9087   89.4426   13.4932 H       1  UNL1        0.1568
     20 C          61.6394   88.1414   11.3920 C.3     1  UNL1        0.1821
     21 N          61.1514   87.5280   10.1130 N.am    1  UNL1       -0.2350
     22 C          60.2272   88.1722    9.1227 C.2     1  UNL1        0.4054
     23 O          59.6285   89.5428    9.2375 O.2     1  UNL1       -0.2262
     24 O          60.0066   87.2051    7.9975 O.3     1  UNL1       -0.4327
     25 C          60.7945   85.9633    8.2924 C.3     1  UNL1        0.2298
     26 C          61.5020   86.1629    9.5999 C.3     1  UNL1        0.1227
     27 C          62.4022   85.1713   10.2756 C.3     1  UNL1        0.0220
     28 C          62.2926   84.9448   11.7543 C.3     1  UNL1        0.0018
     29 C          63.4121   84.4063    9.4725 C.3     1  UNL1        0.0018
@<TRIPOS>BOND
     1     1     2    1
     2     2     3   ar
     3     3     4   ar
     4     4    16    1
     5    16    17   am
     6    17    18    2
     7    17    20    1
     8    20    21    1
     9    21    22   am
    10    22    23    2
    11    22    24    1
    12    24    25    1
    13    25    26    1
    14    26    27    1
    15    27    28    1
    16    27    29    1
    17     4     5   ar
    18     5     6   ar
    19     6     7    1
    20     7     8   ar
    21     8     9   ar
    22     9    10   ar
    23    10    11    1
    24    10    12   ar
    25    12    13   ar
    26     6     2   ar
    27    13     7   ar
    28    26    21    1
    29    16    19    1
    30    11    14    1
    31    11    15    1
@<TRIPOS>MOLECULE
*****
 29 31 0 0 0
SMALL
GASTEIGER

@<TRIPOS>ATOM
      1 C          66.6217   93.5434   14.1777 C.3     1  UNL1        0.0527
      2 C          65.7576   92.6428   13.3457 C.ar    1  UNL1        0.0673
      3 N          64.9584   91.4771   13.8481 N.ar    1  UNL1       -0.2283
      4 C          64.2478   90.8636   12.6782 C.ar    1  UNL1        0.1652
      5 S          64.6078   91.6501   11.4528 S.2     1  UNL1       -0.0517
      6 C          65.5410   92.7498   11.8653 C.ar    1  UNL1        0.0456
      7 C          66.1504   93.7761   10.9569 C.ar    1  UNL1        0.0073
      8 C          67.1433   93.3587    9.9129 C.ar    1  UNL1        0.0018
      9 C          67.7527   94.3850    9.0045 C.ar    1  UNL1        0.0141
     10 C          67.3692   95.8288    9.1402 C.ar    1  UNL1        0.0415
     11 N          67.9787   96.8552    8.2317 N.pl3   1  UNL1       -0.3570
     12 C          66.3764   96.2463   10.1841 C.ar    1  UNL1        0.0141
     13 C          65.7670   95.2199   11.0925 C.ar    1  UNL1        0.0018
     14 H          68.6304   96.5812    7.5465 H       1  UNL1        0.1424
     15 H          67.7271   97.8028    8.3207 H       1  UNL1        0.1424
     16 N          63.3370   89.6727   12.7254 N.am    1  UNL1       -0.2627
     17 C          62.7483   89.1279   11.4579 C.2     1  UNL1        0.2479
     18 O          63.0704   89.7742   10.1430 O.2     1  UNL1       -0.2729
     19 H          63.1257   89.2485   13.5884 H       1  UNL1        0.1568
     20 C          61.8376   87.9370   11.5051 C.3     1  UNL1        0.1821
     21 N          62.4133   86.5519   11.4998 N.am    1  UNL1       -0.2350
     22 C          63.1664   85.9058   12.6247 C.2     1  UNL1        0.4054
     23 O          63.4760   86.5315   13.9525 O.2     1  UNL1       -0.2262
     24 O          63.5556   84.5243   12.1889 O.3     1  UNL1       -0.4327
     25 C          63.0430   84.3166   10.7947 C.3     1  UNL1        0.2298
     26 C          62.3370   85.5697   10.3688 C.3     1  UNL1        0.1227
     27 C          61.6716   85.8001    9.0444 C.3     1  UNL1        0.0220
     28 C          62.3211   85.3116    7.7835 C.3     1  UNL1        0.0018
     29 C          60.3566   86.5190    8.9807 C.3     1  UNL1        0.0018
@<TRIPOS>BOND
     1     1     2    1
     2     2     3   ar
     3     3     4   ar
     4     4    16    1
     5    16    17   am
     6    17    18    2
     7    17    20    1
     8    20    21    1
     9    21    22   am
    10    22    23    2
    11    22    24    1
    12    24    25    1
    13    25    26    1
    14    26    27    1
    15    27    28    1
    16    27    29    1
    17     4     5   ar
    18     5     6   ar
    19     6     7    1
    20     7     8   ar
    21     8     9   ar
    22     9    10   ar
    23    10    11    1
    24    10    12   ar
    25    12    13   ar
    26     6     2   ar
    27    13     7   ar
    28    26    21    1
    29    16    19    1
    30    11    14    1
    31    11    15    1
@<TRIPOS>MOLECULE
*****
 29 31 0 0 0
SMALL
GASTEIGER

@<TRIPOS>ATOM
      1 C          62.4419   85.0719   17.1748 C.3     1  UNL1        0.0527
      2 C          63.1317   85.8616   16.1022 C.ar    1  UNL1        0.0673
      3 N          63.5497   87.2991   16.1965 N.ar    1  UNL1       -0.2283
      4 C          64.2011   87.6785   14.8996 C.ar    1  UNL1        0.1652
      5 S          64.1856   86.4755   14.0038 S.2     1  UNL1       -0.0517
      6 C          63.5247   85.3526   14.7471 C.ar    1  UNL1        0.0456
      7 C          63.2968   83.9643   14.2265 C.ar    1  UNL1        0.0073
      8 C          62.1737   83.1335   14.7726 C.ar    1  UNL1        0.0018
      9 C          61.9458   81.7454   14.2520 C.ar    1  UNL1        0.0141
     10 C          62.8411   81.1880   13.1853 C.ar    1  UNL1        0.0415
     11 N          62.6132   79.7998   12.6647 N.pl3   1  UNL1       -0.3570
     12 C          63.9642   82.0189   12.6392 C.ar    1  UNL1        0.0141
     13 C          64.1920   83.4070   13.1598 C.ar    1  UNL1        0.0018
     14 H          61.8760   79.2545   13.0232 H       1  UNL1        0.1424
     15 H          63.2007   79.4340   11.9646 H       1  UNL1        0.1424
     16 N          64.7683   89.0245   14.5585 N.am    1  UNL1       -0.2627
     17 C          63.8890   90.0767   13.9502 C.2     1  UNL1        0.2479
     18 O          62.4425   89.7827   13.6830 O.2     1  UNL1       -0.2729
     19 H          65.7176   89.2175   14.7338 H       1  UNL1        0.1568
     20 C          64.4562   91.4227   13.6090 C.3     1  UNL1        0.1821
     21 N          65.5175   92.0313   14.4770 N.am    1  UNL1       -0.2350
     22 C          65.3832   92.3604   15.9342 C.2     1  UNL1        0.4054
     23 O          64.1638   92.1388   16.7794 O.2     1  UNL1       -0.2262
     24 O          66.6821   92.9501   16.3980 O.3     1  UNL1       -0.4327
     25 C          67.6192   92.9854   15.2274 C.3     1  UNL1        0.2298
     26 C          66.8995   92.4175   14.0401 C.3     1  UNL1        0.1227
     27 C          67.4629   92.2630   12.6586 C.3     1  UNL1        0.0220
     28 C          68.7762   91.5667   12.4575 C.3     1  UNL1        0.0018
     29 C          66.7129   92.8048   11.4779 C.3     1  UNL1        0.0018
@<TRIPOS>BOND
     1     1     2    1
     2     2     3   ar
     3     3     4   ar
     4     4    16    1
     5    16    17   am
     6    17    18    2
     7    17    20    1
     8    20    21    1
     9    21    22   am
    10    22    23    2
    11    22    24    1
    12    24    25    1
    13    25    26    1
    14    26    27    1
    15    27    28    1
    16    27    29    1
    17     4     5   ar
    18     5     6   ar
    19     6     7    1
    20     7     8   ar
    21     8     9   ar
    22     9    10   ar
    23    10    11    1
    24    10    12   ar
    25    12    13   ar
    26     6     2   ar
    27    13     7   ar
    28    26    21    1
    29    16    19    1
    30    11    14    1
    31    11    15    1
@<TRIPOS>MOLECULE
*****
 29 31 0 0 0
SMALL
GASTEIGER

@<TRIPOS>ATOM
      1 C          64.4403   83.9269   15.1921 C.3     1  UNL1        0.0527
      2 C          63.9355   84.8832   14.1526 C.ar    1  UNL1        0.0673
      3 N          63.9019   86.3780   14.2720 N.ar    1  UNL1       -0.2283
      4 C          63.3213   86.9314   13.0044 C.ar    1  UNL1        0.1652
      5 S          62.9962   85.7785   12.1016 S.2     1  UNL1       -0.0517
      6 C          63.3758   84.5126   12.8112 C.ar    1  UNL1        0.0456
      7 C          63.2225   83.1206   12.2738 C.ar    1  UNL1        0.0073
      8 C          62.6217   82.0472   13.1321 C.ar    1  UNL1        0.0018
      9 C          62.4685   80.6552   12.5946 C.ar    1  UNL1        0.0141
     10 C          62.9160   80.3367   11.1988 C.ar    1  UNL1        0.0415
     11 N          62.7627   78.9446   10.6614 N.pl3   1  UNL1       -0.3570
     12 C          63.5167   81.4101   10.3405 C.ar    1  UNL1        0.0141
     13 C          63.6700   82.8021   10.8780 C.ar    1  UNL1        0.0018
     14 H          62.3684   78.2401   11.2247 H       1  UNL1        0.1424
     15 H          63.0564   78.7356    9.7453 H       1  UNL1        0.1424
     16 N          63.1041   88.3828   12.6941 N.am    1  UNL1       -0.2627
     17 C          63.7914   89.4357   13.5121 C.2     1  UNL1        0.2479
     18 O          64.6959   89.0371   14.6404 O.2     1  UNL1       -0.2729
     19 H          62.5104   88.6443   11.9536 H       1  UNL1        0.1568
     20 C          63.5741   90.8870   13.2018 C.3     1  UNL1        0.1821
     21 N          64.5789   91.6364   12.3779 N.am    1  UNL1       -0.2350
     22 C          64.4527   91.9682   10.9206 C.2     1  UNL1        0.4054
     23 O          63.2995   91.6088   10.0311 O.2     1  UNL1       -0.2262
     24 O          65.6822   92.7225   10.5087 O.3     1  UNL1       -0.4327
     25 C          66.5681   92.8568   11.7115 C.3     1  UNL1        0.2298
     26 C          65.8863   92.1856   12.8668 C.3     1  UNL1        0.1227
     27 C          66.4185   92.0819   14.2654 C.3     1  UNL1        0.0220
     28 C          67.8369   91.6529   14.4983 C.3     1  UNL1        0.0018
     29 C          65.5323   92.4070   15.4311 C.3     1  UNL1        0.0018
@<TRIPOS>BOND
     1     1     2    1
     2     2     3   ar
     3     3     4   ar
     4     4    16    1
     5    16    17   am
     6    17    18    2
     7    17    20    1
     8    20    21    1
     9    21    22   am
    10    22    23    2
    11    22    24    1
    12    24    25    1
    13    25    26    1
    14    26    27    1
    15    27    28    1
    16    27    29    1
    17     4     5   ar
    18     5     6   ar
    19     6     7    1
    20     7     8   ar
    21     8     9   ar
    22     9    10   ar
    23    10    11    1
    24    10    12   ar
    25    12    13   ar
    26     6     2   ar
    27    13     7   ar
    28    26    21    1
    29    16    19    1
    30    11    14    1
    31    11    15    1
@<TRIPOS>MOLECULE
*****
 29 31 0 0 0
SMALL
GASTEIGER

@<TRIPOS>ATOM
      1 C          63.8482   83.3082   15.1947 C.3     1  UNL1        0.0527
      2 C          63.5490   84.2844   14.0959 C.ar    1  UNL1        0.0673
      3 N          63.5488   85.7792   14.2205 N.ar    1  UNL1       -0.2283
      4 C          63.1971   86.3560   12.8812 C.ar    1  UNL1        0.1652
      5 S          62.9800   85.2176   11.9289 S.2     1  UNL1       -0.0517
      6 C          63.1974   83.9373   12.6796 C.ar    1  UNL1        0.0456
      7 C          63.0834   82.5529   12.1133 C.ar    1  UNL1        0.0073
      8 C          62.5806   81.4305   12.9720 C.ar    1  UNL1        0.0018
      9 C          62.4666   80.0462   12.4058 C.ar    1  UNL1        0.0141
     10 C          62.8552   79.7844   10.9809 C.ar    1  UNL1        0.0415
     11 N          62.7412   78.4000   10.4146 N.pl3   1  UNL1       -0.3570
     12 C          63.3580   80.9068   10.1222 C.ar    1  UNL1        0.0141
     13 C          63.4720   82.2911   10.6884 C.ar    1  UNL1        0.0018
     14 H          62.4112   77.6633   10.9782 H       1  UNL1        0.1424
     15 H          62.9963   78.2281    9.4794 H       1  UNL1        0.1424
     16 N          63.0827   87.8150   12.5520 N.am    1  UNL1       -0.2627
     17 C          63.8041   88.8310   13.3870 C.2     1  UNL1        0.2479
     18 O          64.6400   88.3881   14.5512 O.2     1  UNL1       -0.2729
     19 H          62.5342   88.1056   11.7879 H       1  UNL1        0.1568
     20 C          63.6897   90.2900   13.0578 C.3     1  UNL1        0.1821
     21 N          64.5354   91.2918   13.7867 N.am    1  UNL1       -0.2350
     22 C          64.5069   91.5628   15.2618 C.2     1  UNL1        0.4054
     23 O          63.6278   90.8794   16.2670 O.2     1  UNL1       -0.2262
     24 O          65.5118   92.6370   15.5552 O.3     1  UNL1       -0.4327
     25 C          66.1613   93.0300   14.2615 C.3     1  UNL1        0.2298
     26 C          65.5579   92.1986   13.1685 C.3     1  UNL1        0.1227
     27 C          65.9143   92.2628   11.7129 C.3     1  UNL1        0.0220
     28 C          64.8317   92.3583   10.6791 C.3     1  UNL1        0.0018
     29 C          67.3534   92.2313   11.2910 C.3     1  UNL1        0.0018
@<TRIPOS>BOND
     1     1     2    1
     2     2     3   ar
     3     3     4   ar
     4     4    16    1
     5    16    17   am
     6    17    18    2
     7    17    20    1
     8    20    21    1
     9    21    22   am
    10    22    23    2
    11    22    24    1
    12    24    25    1
    13    25    26    1
    14    26    27    1
    15    27    28    1
    16    27    29    1
    17     4     5   ar
    18     5     6   ar
    19     6     7    1
    20     7     8   ar
    21     8     9   ar
    22     9    10   ar
    23    10    11    1
    24    10    12   ar
    25    12    13   ar
    26     6     2   ar
    27    13     7   ar
    28    26    21    1
    29    16    19    1
    30    11    14    1
    31    11    15    1
@<TRIPOS>MOLECULE
*****
 29 31 0 0 0
SMALL
GASTEIGER

@<TRIPOS>ATOM
      1 C          61.2035   85.7559    9.8959 C.3     1  UNL1        0.0527
      2 C          62.0051   86.4432   10.9613 C.ar    1  UNL1        0.0673
      3 N          62.2843   87.9147   11.0433 N.ar    1  UNL1       -0.2283
      4 C          63.1200   88.1606   12.2644 C.ar    1  UNL1        0.1652
      5 S          63.3574   86.8410   12.9370 S.2     1  UNL1       -0.0517
      6 C          62.6683   85.7796   12.1316 C.ar    1  UNL1        0.0456
      7 C          62.6464   84.3122   12.4422 C.ar    1  UNL1        0.0073
      8 C          62.3011   83.8432   13.8245 C.ar    1  UNL1        0.0018
      9 C          62.2792   82.3759   14.1349 C.ar    1  UNL1        0.0141
     10 C          62.6025   81.3776   13.0631 C.ar    1  UNL1        0.0415
     11 N          62.5806   79.9102   13.3736 N.pl3   1  UNL1       -0.3570
     12 C          62.9478   81.8466   11.6808 C.ar    1  UNL1        0.0141
     13 C          62.9697   83.3139   11.3703 C.ar    1  UNL1        0.0018
     14 H          62.3540   79.6024   14.2809 H       1  UNL1        0.1424
     15 H          62.7928   79.2549   12.6702 H       1  UNL1        0.1424
     16 N          63.6291   89.4922   12.7310 N.am    1  UNL1       -0.2627
     17 C          63.6387   90.6622   11.7923 C.2     1  UNL1        0.2479
     18 O          63.1393   90.5005   10.3871 O.2     1  UNL1       -0.2729
     19 H          63.9568   89.5983   13.6532 H       1  UNL1        0.1568
     20 C          64.1477   91.9938   12.2589 C.3     1  UNL1        0.1821
     21 N          65.4074   92.0732   13.0693 N.am    1  UNL1       -0.2350
     22 C          65.5351   91.7693   14.5326 C.2     1  UNL1        0.4054
     23 O          64.4253   91.3327   15.4425 O.2     1  UNL1       -0.2262
     24 O          66.9672   91.9787   14.9263 O.3     1  UNL1       -0.4327
     25 C          67.7247   92.4120   13.7064 C.3     1  UNL1        0.2298
     26 C          66.7607   92.4704   12.5586 C.3     1  UNL1        0.1227
     27 C          67.0919   92.8580   11.1479 C.3     1  UNL1        0.0220
     28 C          66.5077   94.1064   10.5562 C.3     1  UNL1        0.0018
     29 C          68.0074   91.9971   10.3289 C.3     1  UNL1        0.0018
@<TRIPOS>BOND
     1     1     2    1
     2     2     3   ar
     3     3     4   ar
     4     4    16    1
     5    16    17   am
     6    17    18    2
     7    17    20    1
     8    20    21    1
     9    21    22   am
    10    22    23    2
    11    22    24    1
    12    24    25    1
    13    25    26    1
    14    26    27    1
    15    27    28    1
    16    27    29    1
    17     4     5   ar
    18     5     6   ar
    19     6     7    1
    20     7     8   ar
    21     8     9   ar
    22     9    10   ar
    23    10    11    1
    24    10    12   ar
    25    12    13   ar
    26     6     2   ar
    27    13     7   ar
    28    26    21    1
    29    16    19    1
    30    11    14    1
    31    11    15    1
@<TRIPOS>MOLECULE
*****
 29 31 0 0 0
SMALL
GASTEIGER

@<TRIPOS>ATOM
      1 C          66.7185   93.7230   14.2642 C.3     1  UNL1        0.0527
      2 C          65.8333   92.7976   13.4830 C.ar    1  UNL1        0.0673
      3 N          65.0435   91.6517   14.0425 N.ar    1  UNL1       -0.2283
      4 C          64.3046   91.0015   12.9105 C.ar    1  UNL1        0.1652
      5 S          64.6378   91.7456   11.6515 S.2     1  UNL1       -0.0517
      6 C          65.5826   92.8557   12.0053 C.ar    1  UNL1        0.0456
      7 C          66.1730   93.8494   11.0492 C.ar    1  UNL1        0.0073
      8 C          65.8728   95.3106   11.2058 C.ar    1  UNL1        0.0018
      9 C          66.4632   96.3042   10.2497 C.ar    1  UNL1        0.0141
     10 C          67.3538   95.8365    9.1369 C.ar    1  UNL1        0.0415
     11 N          67.9442   96.8302    8.1808 N.pl3   1  UNL1       -0.3570
     12 C          67.6540   94.3752    8.9803 C.ar    1  UNL1        0.0141
     13 C          67.0636   93.3817    9.9364 C.ar    1  UNL1        0.0018
     14 H          67.7472   97.7893    8.2836 H       1  UNL1        0.1424
     15 H          68.5287   96.5232    7.4505 H       1  UNL1        0.1424
     16 N          63.3927   89.8155   13.0187 N.am    1  UNL1       -0.2627
     17 C          62.7743   89.2298   11.7839 C.2     1  UNL1        0.2479
     18 O          63.0679   89.8303   10.4410 O.2     1  UNL1       -0.2729
     19 H          63.2001   89.4214   13.9001 H       1  UNL1        0.1568
     20 C          61.8624   88.0438   11.8920 C.3     1  UNL1        0.1821
     21 N          62.2265   86.7539   11.2186 N.am    1  UNL1       -0.2350
     22 C          62.0429   86.4361    9.7642 C.2     1  UNL1        0.4054
     23 O          61.4629   87.3525    8.7278 O.2     1  UNL1       -0.2262
     24 O          62.5411   85.0411    9.5280 O.3     1  UNL1       -0.4327
     25 C          63.0326   84.4968   10.8364 C.3     1  UNL1        0.2298
     26 C          62.8382   85.5553   11.8813 C.3     1  UNL1        0.1227
     27 C          63.1931   85.4361   13.3338 C.3     1  UNL1        0.0220
     28 C          62.6270   84.3156   14.1548 C.3     1  UNL1        0.0018
     29 C          64.1141   86.4375   13.9654 C.3     1  UNL1        0.0018
@<TRIPOS>BOND
     1     1     2    1
     2     2     3   ar
     3     3     4   ar
     4     4    16    1
     5    16    17   am
     6    17    18    2
     7    17    20    1
     8    20    21    1
     9    21    22   am
    10    22    23    2
    11    22    24    1
    12    24    25    1
    13    25    26    1
    14    26    27    1
    15    27    28    1
    16    27    29    1
    17     4     5   ar
    18     5     6   ar
    19     6     7    1
    20     7     8   ar
    21     8     9   ar
    22     9    10   ar
    23    10    11    1
    24    10    12   ar
    25    12    13   ar
    26     6     2   ar
    27    13     7   ar
    28    26    21    1
    29    16    19    1
    30    11    14    1
    31    11    15    1
@<TRIPOS>MOLECULE
*****
 29 31 0 0 0
SMALL
GASTEIGER

@<TRIPOS>ATOM
      1 C          64.6182   91.0926   15.1493 C.3     1  UNL1        0.0527
      2 C          64.1224   90.4032   13.9129 C.ar    1  UNL1        0.0673
      3 N          63.4039   89.0874   13.8651 N.ar    1  UNL1       -0.2283
      4 C          63.0955   88.7794   12.4298 C.ar    1  UNL1        0.1652
      5 S          63.6234   89.9050   11.5905 S.2     1  UNL1       -0.0517
      6 C          64.2581   90.9085   12.5071 C.ar    1  UNL1        0.0456
      7 C          64.9135   92.1920   12.0909 C.ar    1  UNL1        0.0073
      8 C          65.7239   92.9756   13.0804 C.ar    1  UNL1        0.0018
      9 C          66.3792   94.2591   12.6642 C.ar    1  UNL1        0.0141
     10 C          66.2241   94.7589   11.2585 C.ar    1  UNL1        0.0415
     11 N          66.8794   96.0425   10.8423 N.pl3   1  UNL1       -0.3570
     12 C          65.4137   93.9754   10.2690 C.ar    1  UNL1        0.0141
     13 C          64.7584   92.6919   10.6852 C.ar    1  UNL1        0.0018
     14 H          67.4113   96.5568   11.4918 H       1  UNL1        0.1424
     15 H          66.7776   96.3706    9.9197 H       1  UNL1        0.1424
     16 N          62.3840   87.5601   11.9228 N.am    1  UNL1       -0.2627
     17 C          62.7431   86.2055   12.4578 C.2     1  UNL1        0.2479
     18 O          63.8136   86.0703   13.4998 O.2     1  UNL1       -0.2729
     19 H          61.6814   87.6488   11.2389 H       1  UNL1        0.1568
     20 C          62.0316   84.9862   11.9508 C.3     1  UNL1        0.1821
     21 N          62.8135   83.7593   11.5855 N.am    1  UNL1       -0.2350
     22 C          63.5558   83.5368   10.3012 C.2     1  UNL1        0.4054
     23 O          63.6466   84.5022    9.1566 O.2     1  UNL1       -0.2262
     24 O          64.1913   82.1795   10.3623 O.3     1  UNL1       -0.4327
     25 C          63.8419   81.5631   11.6843 C.3     1  UNL1        0.2298
     26 C          62.9903   82.5395   12.4403 C.3     1  UNL1        0.1227
     27 C          62.4163   82.3324   13.8106 C.3     1  UNL1        0.0220
     28 C          61.3808   81.2712   14.0375 C.3     1  UNL1        0.0018
     29 C          62.8779   83.1865   14.9540 C.3     1  UNL1        0.0018
@<TRIPOS>BOND
     1     1     2    1
     2     2     3   ar
     3     3     4   ar
     4     4    16    1
     5    16    17   am
     6    17    18    2
     7    17    20    1
     8    20    21    1
     9    21    22   am
    10    22    23    2
    11    22    24    1
    12    24    25    1
    13    25    26    1
    14    26    27    1
    15    27    28    1
    16    27    29    1
    17     4     5   ar
    18     5     6   ar
    19     6     7    1
    20     7     8   ar
    21     8     9   ar
    22     9    10   ar
    23    10    11    1
    24    10    12   ar
    25    12    13   ar
    26     6     2   ar
    27    13     7   ar
    28    26    21    1
    29    16    19    1
    30    11    14    1
    31    11    15    1
