@<TRIPOS>MOLECULE
*****
 37 39 0 0 0
SMALL
GASTEIGER

@<TRIPOS>ATOM
      1 C          62.8200   87.8258   12.2653 C.2     1  UNL1        0.2491
      2 O          63.3469   86.4860   12.6864 O.2     1  UNL1       -0.2699
      3 N          61.6262   87.9119   11.3612 N.am    1  UNL1       -0.2776
      4 C          64.3913   91.4701   12.2819 C.ar    1  UNL1        0.1723
      5 C          63.7245   90.2164   11.7989 C.ar    1  UNL1        0.0446
      6 C          63.4870   89.0796   12.7484 C.ar    1  UNL1        0.0568
      7 C          63.9164   89.1966   14.1808 C.ar    1  UNL1        0.0078
      8 C          64.5833   90.4504   14.6638 C.ar    1  UNL1        0.0402
      9 C          64.8208   91.5871   13.7143 C.ar    1  UNL1        0.1724
     10 O          65.4877   92.8409   14.1974 O.3     1  UNL1       -0.4684
     11 C          66.5115   92.7721   15.2915 C.3     1  UNL1        0.2526
     12 O          64.6288   92.6068   11.3325 O.3     1  UNL1       -0.4723
     13 C          66.0223   92.9263   10.8785 C.3     1  UNL1        0.2082
     14 C          66.3935   94.3379   10.5330 C.3     1  UNL1        0.0794
     15 C          67.4922   94.6047    9.5472 C.3     1  UNL1        0.1461
     16 C          68.8431   92.4465    9.0302 C.3     1  UNL1        0.1741
     17 O          68.7709   93.8238    9.6199 O.3     1  UNL1       -0.3510
     18 C          61.0994   89.2518   10.9401 C.3     1  UNL1        0.0757
     19 C          60.1125   89.9758   11.8071 C.3     1  UNL1        0.0215
     20 C          61.5595   89.8675    9.6521 C.3     1  UNL1        0.0215
     21 C          60.9593   86.6582   10.8782 C.3     1  UNL1        0.0974
     22 C          61.2665   86.1244    9.5104 C.3     1  UNL1        0.0642
     23 C          60.4486   86.3472    8.2729 C.3     1  UNL1        0.0728
     24 N          61.1221   85.6346    7.1376 N.3     1  UNL1       -0.2953
     25 C          62.3562   84.9715    7.6736 C.3     1  UNL1        0.0986
     26 C          62.4454   85.2742    9.1400 C.3     1  UNL1        0.1342
     27 H          61.3765   86.3039    6.4111 H       1  UNL1        0.1233
     28 O          63.5242   84.8085   10.0723 O.3     1  UNL1       -0.3500
     29 C          63.8756   83.3521   10.1449 C.3     1  UNL1        0.1686
     30 C          63.5236   82.5555   11.3661 C.ar    1  UNL1        0.0103
     31 C          63.0074   81.1542   11.2245 C.ar    1  UNL1       -0.0017
     32 C          62.6554   80.3576   12.4458 C.ar    1  UNL1        0.0029
     33 C          62.8195   80.9622   13.8087 C.ar    1  UNL1        0.0369
     34 C          63.3357   82.3635   13.9503 C.ar    1  UNL1        0.1385
     35 C          63.6877   83.1601   12.7290 C.ar    1  UNL1        0.0351
     36 O          63.4998   82.9681   15.3132 O.3     1  UNL1       -0.4714
     37 C          62.6544   84.1380   15.7214 C.3     1  UNL1        0.2525
@<TRIPOS>BOND
     1    16    17    1
     2    17    15    1
     3    15    14    1
     4    14    13    1
     5    13    12    1
     6    12     4    1
     7     4     5   ar
     8     5     6   ar
     9     6     1    1
    10     1     2    2
    11     1     3   am
    12     3    21    1
    13    22    21    1
    14    22    23    1
    15    23    24    1
    16    24    25    1
    17    25    26    1
    18    26    28    1
    19    28    29    1
    20    29    30    1
    21    30    31   ar
    22    31    32   ar
    23    32    33   ar
    24    33    34   ar
    25    34    36    1
    26    36    37    1
    27    34    35   ar
    28     3    18    1
    29    18    19    1
    30    18    20    1
    31     6     7   ar
    32     7     8   ar
    33     8     9   ar
    34     9    10    1
    35    10    11    1
    36     9     4   ar
    37    26    22    1
    38    35    30   ar
    39    24    27    1
@<TRIPOS>MOLECULE
*****
 37 39 0 0 0
SMALL
GASTEIGER

@<TRIPOS>ATOM
      1 C          63.6513   91.1017   12.5846 C.2     1  UNL1        0.2491
      2 O          63.0824   91.7652   11.3656 O.2     1  UNL1       -0.2699
      3 N          62.8708   90.0322   13.2896 N.am    1  UNL1       -0.2776
      4 C          67.5130   92.0126   12.6705 C.ar    1  UNL1        0.1723
      5 C          66.1636   91.6066   12.1565 C.ar    1  UNL1        0.0446
      6 C          65.0007   91.5078   13.0987 C.ar    1  UNL1        0.0568
      7 C          65.1872   91.8149   14.5550 C.ar    1  UNL1        0.0078
      8 C          66.5365   92.2210   15.0691 C.ar    1  UNL1        0.0402
      9 C          67.6995   92.3198   14.1268 C.ar    1  UNL1        0.1724
     10 O          69.0489   92.7259   14.6409 O.3     1  UNL1       -0.4684
     11 C          69.1571   93.7090   15.7687 C.3     1  UNL1        0.2526
     12 O          68.6759   92.1115   11.7283 O.3     1  UNL1       -0.4723
     13 C          68.4685   91.9071   10.2568 C.3     1  UNL1        0.2082
     14 C          68.7409   93.0282    9.2982 C.3     1  UNL1        0.0794
     15 C          67.8340   94.2225    9.2636 C.3     1  UNL1        0.1461
     16 C          65.8413   95.2013   10.6131 C.3     1  UNL1        0.1741
     17 O          67.2791   94.7800   10.5409 O.3     1  UNL1       -0.3510
     18 C          63.4398   89.3687   14.5087 C.3     1  UNL1        0.0757
     19 C          63.0591   89.8569   15.8750 C.3     1  UNL1        0.0215
     20 C          64.3896   88.2170   14.3615 C.3     1  UNL1        0.0215
     21 C          61.5215   89.6261   12.7756 C.3     1  UNL1        0.0974
     22 C          61.3954   88.9820   11.4268 C.3     1  UNL1        0.0642
     23 C          60.6515   89.5395   10.2496 C.3     1  UNL1        0.0728
     24 N          60.7874   88.5694    9.1136 N.3     1  UNL1       -0.2953
     25 C          61.6154   87.4123    9.5887 C.3     1  UNL1        0.0986
     26 C          61.9911   87.6674   11.0183 C.3     1  UNL1        0.1342
     27 H          61.2473   89.0230    8.3242 H       1  UNL1        0.1233
     28 O          62.8175   86.7660   11.8870 O.3     1  UNL1       -0.3500
     29 C          62.2668   85.4447   12.3350 C.3     1  UNL1        0.1686
     30 C          62.7739   84.1736   11.7208 C.ar    1  UNL1        0.0103
     31 C          63.5734   84.2203   10.4525 C.ar    1  UNL1       -0.0017
     32 C          64.0805   82.9493    9.8383 C.ar    1  UNL1        0.0029
     33 C          63.7881   81.6315   10.4924 C.ar    1  UNL1        0.0369
     34 C          62.9886   81.5847   11.7607 C.ar    1  UNL1        0.1385
     35 C          62.4815   82.8558   12.3749 C.ar    1  UNL1        0.0351
     36 O          62.6963   80.2669   12.4148 O.3     1  UNL1       -0.4714
     37 C          61.9930   80.2266   13.7392 C.3     1  UNL1        0.2525
@<TRIPOS>BOND
     1    16    17    1
     2    17    15    1
     3    15    14    1
     4    14    13    1
     5    13    12    1
     6    12     4    1
     7     4     5   ar
     8     5     6   ar
     9     6     1    1
    10     1     2    2
    11     1     3   am
    12     3    21    1
    13    22    21    1
    14    22    23    1
    15    23    24    1
    16    24    25    1
    17    25    26    1
    18    26    28    1
    19    28    29    1
    20    29    30    1
    21    30    31   ar
    22    31    32   ar
    23    32    33   ar
    24    33    34   ar
    25    34    36    1
    26    36    37    1
    27    34    35   ar
    28     3    18    1
    29    18    19    1
    30    18    20    1
    31     6     7   ar
    32     7     8   ar
    33     8     9   ar
    34     9    10    1
    35    10    11    1
    36     9     4   ar
    37    26    22    1
    38    35    30   ar
    39    24    27    1
@<TRIPOS>MOLECULE
*****
 37 39 0 0 0
SMALL
GASTEIGER

@<TRIPOS>ATOM
      1 C          63.1835   85.9374   12.0581 C.2     1  UNL1        0.2491
      2 O          63.3137   87.3156   12.6357 O.2     1  UNL1       -0.2699
      3 N          63.6671   84.7495   12.8358 N.am    1  UNL1       -0.2776
      4 C          60.5960   86.1184    9.0544 C.ar    1  UNL1        0.1723
      5 C          61.2098   86.3086   10.4097 C.ar    1  UNL1        0.0446
      6 C          62.5696   85.7472   10.7027 C.ar    1  UNL1        0.0568
      7 C          63.3154   84.9955    9.6404 C.ar    1  UNL1        0.0078
      8 C          62.7016   84.8052    8.2851 C.ar    1  UNL1        0.0402
      9 C          61.3418   85.3667    7.9921 C.ar    1  UNL1        0.1724
     10 O          60.7279   85.1764    6.6367 O.3     1  UNL1       -0.4684
     11 C          61.3749   84.2583    5.6425 C.3     1  UNL1        0.2526
     12 O          59.2362   86.6799    8.7614 O.3     1  UNL1       -0.4723
     13 C          59.0932   87.8600    7.8467 C.3     1  UNL1        0.2082
     14 C          60.0166   89.0338    7.9868 C.3     1  UNL1        0.0794
     15 C          60.5887   89.3819    9.3291 C.3     1  UNL1        0.1461
     16 C          60.1799   89.7652   11.8660 C.3     1  UNL1        0.1741
     17 O          59.6775   89.7784   10.4527 O.3     1  UNL1       -0.3510
     18 C          63.5369   83.3713   12.2581 C.3     1  UNL1        0.0757
     19 C          62.2920   82.5706   12.5014 C.3     1  UNL1        0.0215
     20 C          64.6516   82.7938   11.4372 C.3     1  UNL1        0.0215
     21 C          64.2810   84.9397   14.1912 C.3     1  UNL1        0.0974
     22 C          63.4642   85.5140   15.3105 C.3     1  UNL1        0.0642
     23 C          62.4347   84.7799   16.1175 C.3     1  UNL1        0.0728
     24 N          61.8678   85.7355   17.1252 N.3     1  UNL1       -0.2953
     25 C          62.5468   87.0603   16.9410 C.3     1  UNL1        0.0986
     26 C          63.5335   86.9234   15.8195 C.3     1  UNL1        0.1342
     27 H          62.0397   85.3866   18.0681 H       1  UNL1        0.1233
     28 O          64.4317   88.0058   15.2984 O.3     1  UNL1       -0.3500
     29 C          63.9631   89.4306   15.2913 C.3     1  UNL1        0.1686
     30 C          64.5069   90.3940   14.2783 C.ar    1  UNL1        0.0103
     31 C          63.7429   90.6662   13.0165 C.ar    1  UNL1       -0.0017
     32 C          64.2868   91.6297   12.0035 C.ar    1  UNL1        0.0029
     33 C          65.5945   92.3209   12.2523 C.ar    1  UNL1        0.0369
     34 C          66.3585   92.0487   13.5142 C.ar    1  UNL1        0.1385
     35 C          65.8147   91.0852   14.5272 C.ar    1  UNL1        0.0351
     36 O          67.6662   92.7399   13.7630 O.3     1  UNL1       -0.4714
     37 C          68.3971   92.5198   15.0543 C.3     1  UNL1        0.2525
@<TRIPOS>BOND
     1    16    17    1
     2    17    15    1
     3    15    14    1
     4    14    13    1
     5    13    12    1
     6    12     4    1
     7     4     5   ar
     8     5     6   ar
     9     6     1    1
    10     1     2    2
    11     1     3   am
    12     3    21    1
    13    22    21    1
    14    22    23    1
    15    23    24    1
    16    24    25    1
    17    25    26    1
    18    26    28    1
    19    28    29    1
    20    29    30    1
    21    30    31   ar
    22    31    32   ar
    23    32    33   ar
    24    33    34   ar
    25    34    36    1
    26    36    37    1
    27    34    35   ar
    28     3    18    1
    29    18    19    1
    30    18    20    1
    31     6     7   ar
    32     7     8   ar
    33     8     9   ar
    34     9    10    1
    35    10    11    1
    36     9     4   ar
    37    26    22    1
    38    35    30   ar
    39    24    27    1
@<TRIPOS>MOLECULE
*****
 37 39 0 0 0
SMALL
GASTEIGER

@<TRIPOS>ATOM
      1 C          62.4283   88.3669   11.5162 C.2     1  UNL1        0.2491
      2 O          62.9849   87.0629   12.0058 O.2     1  UNL1       -0.2699
      3 N          61.1365   88.3921   10.7542 N.am    1  UNL1       -0.2776
      4 C          64.1336   91.3681   13.4745 C.ar    1  UNL1        0.1723
      5 C          63.3985   90.0893   13.2021 C.ar    1  UNL1        0.0446
      6 C          63.1635   89.6457   11.7886 C.ar    1  UNL1        0.0568
      7 C          63.6637   90.4809   10.6475 C.ar    1  UNL1        0.0078
      8 C          64.3989   91.7597   10.9199 C.ar    1  UNL1        0.0402
      9 C          64.6338   92.2032   12.3334 C.ar    1  UNL1        0.1724
     10 O          65.3690   93.4821   12.6058 O.3     1  UNL1       -0.4684
     11 C          66.1802   94.1265   11.5210 C.3     1  UNL1        0.2526
     12 O          64.3686   91.8116   14.8880 O.3     1  UNL1       -0.4723
     13 C          64.0875   90.8743   16.0248 C.3     1  UNL1        0.2082
     14 C          63.0651   89.7882   15.8660 C.3     1  UNL1        0.0794
     15 C          63.3477   88.4102   16.3872 C.3     1  UNL1        0.1461
     16 C          62.6613   86.4489   17.9467 C.3     1  UNL1        0.1741
     17 O          62.2933   87.6671   17.1528 O.3     1  UNL1       -0.3510
     18 C          60.5799   89.6962   10.2647 C.3     1  UNL1        0.0757
     19 C          59.9318   90.6445   11.2294 C.3     1  UNL1        0.0215
     20 C          60.6713   90.0520    8.8103 C.3     1  UNL1        0.0215
     21 C          60.4013   87.1134   10.4819 C.3     1  UNL1        0.0974
     22 C          60.5591   86.4247    9.1587 C.3     1  UNL1        0.0642
     23 C          59.5558   86.4168    8.0436 C.3     1  UNL1        0.0728
     24 N          60.1246   85.6103    6.9140 N.3     1  UNL1       -0.2953
     25 C          61.4794   85.1197    7.3309 C.3     1  UNL1        0.0986
     26 C          61.7479   85.6230    8.7182 C.3     1  UNL1        0.1342
     27 H          60.2086   86.1926    6.0808 H       1  UNL1        0.1233
     28 O          62.9876   85.3692    9.5236 O.3     1  UNL1       -0.3500
     29 C          63.5661   83.9872    9.5946 C.3     1  UNL1        0.1686
     30 C          63.3077   83.1267   10.7958 C.ar    1  UNL1        0.0103
     31 C          63.2105   81.6375   10.6446 C.ar    1  UNL1       -0.0017
     32 C          62.9522   80.7770   11.8458 C.ar    1  UNL1        0.0029
     33 C          62.7910   81.4057   13.1981 C.ar    1  UNL1        0.0369
     34 C          62.8882   82.8949   13.3492 C.ar    1  UNL1        0.1385
     35 C          63.1466   83.7554   12.1481 C.ar    1  UNL1        0.0351
     36 O          62.7270   83.5236   14.7016 O.3     1  UNL1       -0.4714
     37 C          63.8212   84.3810   15.2653 C.3     1  UNL1        0.2525
@<TRIPOS>BOND
     1    16    17    1
     2    17    15    1
     3    15    14    1
     4    14    13    1
     5    13    12    1
     6    12     4    1
     7     4     5   ar
     8     5     6   ar
     9     6     1    1
    10     1     2    2
    11     1     3   am
    12     3    21    1
    13    22    21    1
    14    22    23    1
    15    23    24    1
    16    24    25    1
    17    25    26    1
    18    26    28    1
    19    28    29    1
    20    29    30    1
    21    30    31   ar
    22    31    32   ar
    23    32    33   ar
    24    33    34   ar
    25    34    36    1
    26    36    37    1
    27    34    35   ar
    28     3    18    1
    29    18    19    1
    30    18    20    1
    31     6     7   ar
    32     7     8   ar
    33     8     9   ar
    34     9    10    1
    35    10    11    1
    36     9     4   ar
    37    26    22    1
    38    35    30   ar
    39    24    27    1
@<TRIPOS>MOLECULE
*****
 37 39 0 0 0
SMALL
GASTEIGER

@<TRIPOS>ATOM
      1 C          62.4247   89.9075   10.3812 C.2     1  UNL1        0.2491
      2 O          63.3714   89.8275    9.2205 O.2     1  UNL1       -0.2699
      3 N          60.9479   89.7735   10.1551 N.am    1  UNL1       -0.2776
      4 C          63.5607   89.1849   14.1145 C.ar    1  UNL1        0.1723
      5 C          63.0306   88.9710   12.7277 C.ar    1  UNL1        0.0446
      6 C          62.9548   90.1214   11.7680 C.ar    1  UNL1        0.0568
      7 C          63.4090   91.4856   12.1952 C.ar    1  UNL1        0.0078
      8 C          63.9391   91.6995   13.5820 C.ar    1  UNL1        0.0402
      9 C          64.0149   90.5491   14.5416 C.ar    1  UNL1        0.1724
     10 O          64.5450   90.7630   15.9285 O.3     1  UNL1       -0.4684
     11 C          64.7469   92.1557   16.4477 C.3     1  UNL1        0.2526
     12 O          63.6365   88.0345   15.0741 O.3     1  UNL1       -0.4723
     13 C          64.3917   86.7938   14.6995 C.3     1  UNL1        0.2082
     14 C          64.2503   85.5510   15.5274 C.3     1  UNL1        0.0794
     15 C          62.8923   84.9611   15.7687 C.3     1  UNL1        0.1461
     16 C          62.6137   86.4538   17.8769 C.3     1  UNL1        0.1741
     17 O          62.0525   85.4541   16.9097 O.3     1  UNL1       -0.3510
     18 C          60.0012   89.8535   11.3159 C.3     1  UNL1        0.0757
     19 C          59.3710   91.1649   11.6808 C.3     1  UNL1        0.0215
     20 C          59.6847   88.6221   12.1118 C.3     1  UNL1        0.0215
     21 C          60.4178   89.5596    8.7684 C.3     1  UNL1        0.0974
     22 C          59.9933   88.1891    8.3308 C.3     1  UNL1        0.0642
     23 C          58.7468   87.8542    7.5665 C.3     1  UNL1        0.0728
     24 N          58.7238   86.3710    7.3441 N.3     1  UNL1       -0.2953
     25 C          59.9562   85.7891    7.9708 C.3     1  UNL1        0.0986
     26 C          60.7407   86.9128    8.5806 C.3     1  UNL1        0.1342
     27 H          58.7168   86.1710    6.3439 H       1  UNL1        0.1233
     28 O          62.0439   86.7830    9.3119 O.3     1  UNL1       -0.3500
     29 C          62.0760   86.1844   10.6869 C.3     1  UNL1        0.1686
     30 C          62.7190   84.8474   10.9081 C.ar    1  UNL1        0.0103
     31 C          63.5209   84.2103    9.8122 C.ar    1  UNL1       -0.0017
     32 C          64.1639   82.8732   10.0334 C.ar    1  UNL1        0.0029
     33 C          64.0048   82.1732   11.3505 C.ar    1  UNL1        0.0369
     34 C          63.2028   82.8103   12.4463 C.ar    1  UNL1        0.1385
     35 C          62.5599   84.1474   12.2251 C.ar    1  UNL1        0.0351
     36 O          63.0437   82.1103   13.7634 O.3     1  UNL1       -0.4714
     37 C          62.5971   80.6789   13.8028 C.3     1  UNL1        0.2525
@<TRIPOS>BOND
     1    16    17    1
     2    17    15    1
     3    15    14    1
     4    14    13    1
     5    13    12    1
     6    12     4    1
     7     4     5   ar
     8     5     6   ar
     9     6     1    1
    10     1     2    2
    11     1     3   am
    12     3    21    1
    13    22    21    1
    14    22    23    1
    15    23    24    1
    16    24    25    1
    17    25    26    1
    18    26    28    1
    19    28    29    1
    20    29    30    1
    21    30    31   ar
    22    31    32   ar
    23    32    33   ar
    24    33    34   ar
    25    34    36    1
    26    36    37    1
    27    34    35   ar
    28     3    18    1
    29    18    19    1
    30    18    20    1
    31     6     7   ar
    32     7     8   ar
    33     8     9   ar
    34     9    10    1
    35    10    11    1
    36     9     4   ar
    37    26    22    1
    38    35    30   ar
    39    24    27    1
@<TRIPOS>MOLECULE
*****
 37 39 0 0 0
SMALL
GASTEIGER

@<TRIPOS>ATOM
      1 C          64.1298   90.5166   12.0292 C.2     1  UNL1        0.2491
      2 O          63.9082   90.7369   10.5621 O.2     1  UNL1       -0.2699
      3 N          63.4527   89.3742   12.7268 N.am    1  UNL1       -0.2776
      4 C          66.3046   93.6934   12.9926 C.ar    1  UNL1        0.1723
      5 C          65.4059   92.7714   12.2231 C.ar    1  UNL1        0.0446
      6 C          65.0286   91.4386   12.7987 C.ar    1  UNL1        0.0568
      7 C          65.5500   91.0278   14.1438 C.ar    1  UNL1        0.0078
      8 C          66.4488   91.9498   14.9133 C.ar    1  UNL1        0.0402
      9 C          66.8261   93.2826   14.3377 C.ar    1  UNL1        0.1724
     10 O          67.7248   94.2047   15.1072 O.3     1  UNL1       -0.4684
     11 C          68.8683   93.6470   15.9018 C.3     1  UNL1        0.2526
     12 O          66.6819   95.0262   12.4169 O.3     1  UNL1       -0.4723
     13 C          66.0982   95.4704   11.1086 C.3     1  UNL1        0.2082
     14 C          67.0017   95.9114    9.9954 C.3     1  UNL1        0.0794
     15 C          67.6638   94.8907    9.1178 C.3     1  UNL1        0.1461
     16 C          68.5385   92.4696    9.4686 C.3     1  UNL1        0.1741
     17 O          68.6744   93.9458    9.6974 O.3     1  UNL1       -0.3510
     18 C          63.6744   89.1539   14.1939 C.3     1  UNL1        0.0757
     19 C          63.0720   90.0964   15.1933 C.3     1  UNL1        0.0215
     20 C          64.4985   87.9911   14.6616 C.3     1  UNL1        0.0215
     21 C          62.5540   88.4522   11.9573 C.3     1  UNL1        0.0974
     22 C          61.4955   89.0158   11.0562 C.3     1  UNL1        0.0642
     23 C          61.0458   90.4461   11.0113 C.3     1  UNL1        0.0728
     24 N          59.9733   90.5624    9.9691 N.3     1  UNL1       -0.2953
     25 C          59.7601   89.2039    9.3698 C.3     1  UNL1        0.0986
     26 C          60.7009   88.2481   10.0417 C.3     1  UNL1        0.1342
     27 H          60.2644   91.2186    9.2445 H       1  UNL1        0.1233
     28 O          60.8253   86.7820    9.7502 O.3     1  UNL1       -0.3500
     29 C          62.1560   86.2028    9.3715 C.3     1  UNL1        0.1686
     30 C          62.7246   85.0557   10.1531 C.ar    1  UNL1        0.0103
     31 C          63.6385   84.0721    9.4842 C.ar    1  UNL1       -0.0017
     32 C          64.2071   82.9251   10.2658 C.ar    1  UNL1        0.0029
     33 C          63.8619   82.7616   11.7164 C.ar    1  UNL1        0.0369
     34 C          62.9481   83.7452   12.3853 C.ar    1  UNL1        0.1385
     35 C          62.3794   84.8922   11.6036 C.ar    1  UNL1        0.0351
     36 O          62.6028   83.5817   13.8358 O.3     1  UNL1       -0.4714
     37 C          63.4405   84.2491   14.8860 C.3     1  UNL1        0.2525
@<TRIPOS>BOND
     1    16    17    1
     2    17    15    1
     3    15    14    1
     4    14    13    1
     5    13    12    1
     6    12     4    1
     7     4     5   ar
     8     5     6   ar
     9     6     1    1
    10     1     2    2
    11     1     3   am
    12     3    21    1
    13    22    21    1
    14    22    23    1
    15    23    24    1
    16    24    25    1
    17    25    26    1
    18    26    28    1
    19    28    29    1
    20    29    30    1
    21    30    31   ar
    22    31    32   ar
    23    32    33   ar
    24    33    34   ar
    25    34    36    1
    26    36    37    1
    27    34    35   ar
    28     3    18    1
    29    18    19    1
    30    18    20    1
    31     6     7   ar
    32     7     8   ar
    33     8     9   ar
    34     9    10    1
    35    10    11    1
    36     9     4   ar
    37    26    22    1
    38    35    30   ar
    39    24    27    1
@<TRIPOS>MOLECULE
*****
 37 39 0 0 0
SMALL
GASTEIGER

@<TRIPOS>ATOM
      1 C          61.5387   89.8649   12.5877 C.2     1  UNL1        0.2491
      2 O          60.3768   89.7073   13.5231 O.2     1  UNL1       -0.2699
      3 N          61.3456   89.6728   11.1126 N.am    1  UNL1       -0.2776
      4 C          64.9590   91.7905   13.1741 C.ar    1  UNL1        0.1723
      5 C          63.6039   91.4408   12.6346 C.ar    1  UNL1        0.0446
      6 C          62.8940   90.2147   13.1273 C.ar    1  UNL1        0.0568
      7 C          63.5392   89.3384   14.1596 C.ar    1  UNL1        0.0078
      8 C          64.8944   89.6882   14.6992 C.ar    1  UNL1        0.0402
      9 C          65.6043   90.9143   14.2064 C.ar    1  UNL1        0.1724
     10 O          66.9595   91.2640   14.7461 O.3     1  UNL1       -0.4684
     11 C          67.1050   92.3708   15.7480 C.3     1  UNL1        0.2526
     12 O          65.6689   93.0166   12.6814 O.3     1  UNL1       -0.4723
     13 C          66.0170   93.1486   11.2283 C.3     1  UNL1        0.2082
     14 C          66.3534   94.4941   10.6569 C.3     1  UNL1        0.0794
     15 C          67.4122   94.6174    9.6015 C.3     1  UNL1        0.1461
     16 C          68.7869   92.4744    9.0839 C.3     1  UNL1        0.1741
     17 O          68.6832   93.8295    9.7187 O.3     1  UNL1       -0.3510
     18 C          62.5076   89.8304   10.1772 C.3     1  UNL1        0.0757
     19 C          63.2753   88.6238    9.7249 C.3     1  UNL1        0.0215
     20 C          62.9018   91.1947    9.6942 C.3     1  UNL1        0.0215
     21 C          59.9904   89.3230   10.5730 C.3     1  UNL1        0.0974
     22 C          59.8609   88.3262    9.4597 C.3     1  UNL1        0.0642
     23 C          59.2772   88.5901    8.1033 C.3     1  UNL1        0.0728
     24 N          59.3478   87.3174    7.3126 N.3     1  UNL1       -0.2953
     25 C          59.9752   86.2669    8.1802 C.3     1  UNL1        0.0986
     26 C          60.2923   86.8904    9.5071 C.3     1  UNL1        0.1342
     27 H          59.9149   87.4602    6.4769 H       1  UNL1        0.1233
     28 O          60.9290   86.1993   10.6763 O.3     1  UNL1       -0.3500
     29 C          62.0856   85.2693   10.4590 C.3     1  UNL1        0.1686
     30 C          62.7801   84.6485   11.6347 C.ar    1  UNL1        0.0103
     31 C          62.9917   83.1643   11.6829 C.ar    1  UNL1       -0.0017
     32 C          63.6862   82.5435   12.8586 C.ar    1  UNL1        0.0029
     33 C          64.1691   83.4069   13.9862 C.ar    1  UNL1        0.0369
     34 C          63.9574   84.8911   13.9380 C.ar    1  UNL1        0.1385
     35 C          63.2630   85.5119   12.7623 C.ar    1  UNL1        0.0351
     36 O          64.4403   85.7545   15.0655 O.3     1  UNL1       -0.4714
     37 C          63.6018   85.9158   16.2988 C.3     1  UNL1        0.2525
@<TRIPOS>BOND
     1    16    17    1
     2    17    15    1
     3    15    14    1
     4    14    13    1
     5    13    12    1
     6    12     4    1
     7     4     5   ar
     8     5     6   ar
     9     6     1    1
    10     1     2    2
    11     1     3   am
    12     3    21    1
    13    22    21    1
    14    22    23    1
    15    23    24    1
    16    24    25    1
    17    25    26    1
    18    26    28    1
    19    28    29    1
    20    29    30    1
    21    30    31   ar
    22    31    32   ar
    23    32    33   ar
    24    33    34   ar
    25    34    36    1
    26    36    37    1
    27    34    35   ar
    28     3    18    1
    29    18    19    1
    30    18    20    1
    31     6     7   ar
    32     7     8   ar
    33     8     9   ar
    34     9    10    1
    35    10    11    1
    36     9     4   ar
    37    26    22    1
    38    35    30   ar
    39    24    27    1
@<TRIPOS>MOLECULE
*****
 37 39 0 0 0
SMALL
GASTEIGER

@<TRIPOS>ATOM
      1 C          62.7510   86.0648   11.0152 C.2     1  UNL1        0.2491
      2 O          63.1537   86.8667   12.2172 O.2     1  UNL1       -0.2699
      3 N          62.1956   86.7551    9.8048 N.am    1  UNL1       -0.2776
      4 C          62.3322   82.2582   12.0565 C.ar    1  UNL1        0.1723
      5 C          62.1795   83.7503   12.0481 C.ar    1  UNL1        0.0446
      6 C          62.9037   84.5726   11.0236 C.ar    1  UNL1        0.0568
      7 C          63.7804   83.9026   10.0075 C.ar    1  UNL1        0.0078
      8 C          63.9331   82.4105   10.0160 C.ar    1  UNL1        0.0402
      9 C          63.2089   81.5883   11.0405 C.ar    1  UNL1        0.1724
     10 O          63.3616   80.0960   11.0489 O.3     1  UNL1       -0.4684
     11 C          62.8669   79.2850    9.8881 C.3     1  UNL1        0.2526
     12 O          61.6080   81.4360   13.0811 O.3     1  UNL1       -0.4723
     13 C          61.8130   81.7075   14.5419 C.3     1  UNL1        0.2082
     14 C          62.7922   82.7561   14.9797 C.3     1  UNL1        0.0794
     15 C          62.2987   84.0387   15.5810 C.3     1  UNL1        0.1461
     16 C          64.4957   85.3112   15.0297 C.3     1  UNL1        0.1741
     17 O          63.0210   85.3238   15.3036 O.3     1  UNL1       -0.3510
     18 C          61.7929   85.9531    8.6028 C.3     1  UNL1        0.0757
     19 C          62.8389   85.2728    7.7703 C.3     1  UNL1        0.0215
     20 C          60.3442   85.8314    8.2334 C.3     1  UNL1        0.0215
     21 C          62.0429   88.2472    9.7963 C.3     1  UNL1        0.0974
     22 C          60.9681   88.8958   10.6174 C.3     1  UNL1        0.0642
     23 C          59.7928   88.2010   11.2384 C.3     1  UNL1        0.0728
     24 N          58.9782   89.2289   11.9664 N.3     1  UNL1       -0.2953
     25 C          59.6501   90.5590   11.7952 C.3     1  UNL1        0.0986
     26 C          60.8799   90.3532   10.9615 C.3     1  UNL1        0.1342
     27 H          58.9270   88.9919   12.9571 H       1  UNL1        0.1233
     28 O          61.8511   91.4178   10.5450 O.3     1  UNL1       -0.3500
     29 C          63.3065   91.0879   10.3943 C.3     1  UNL1        0.1686
     30 C          64.3192   91.7357   11.2914 C.ar    1  UNL1        0.0103
     31 C          64.4227   91.3199   12.7288 C.ar    1  UNL1       -0.0017
     32 C          65.4355   91.9677   13.6259 C.ar    1  UNL1        0.0029
     33 C          66.3447   93.0313   13.0856 C.ar    1  UNL1        0.0369
     34 C          66.2412   93.4471   11.6481 C.ar    1  UNL1        0.1385
     35 C          65.2285   92.7993   10.7510 C.ar    1  UNL1        0.0351
     36 O          67.1504   94.5107   11.1077 O.3     1  UNL1       -0.4714
     37 C          67.1947   94.7814    9.6330 C.3     1  UNL1        0.2525
@<TRIPOS>BOND
     1    16    17    1
     2    17    15    1
     3    15    14    1
     4    14    13    1
     5    13    12    1
     6    12     4    1
     7     4     5   ar
     8     5     6   ar
     9     6     1    1
    10     1     2    2
    11     1     3   am
    12     3    21    1
    13    22    21    1
    14    22    23    1
    15    23    24    1
    16    24    25    1
    17    25    26    1
    18    26    28    1
    19    28    29    1
    20    29    30    1
    21    30    31   ar
    22    31    32   ar
    23    32    33   ar
    24    33    34   ar
    25    34    36    1
    26    36    37    1
    27    34    35   ar
    28     3    18    1
    29    18    19    1
    30    18    20    1
    31     6     7   ar
    32     7     8   ar
    33     8     9   ar
    34     9    10    1
    35    10    11    1
    36     9     4   ar
    37    26    22    1
    38    35    30   ar
    39    24    27    1
@<TRIPOS>MOLECULE
*****
 37 39 0 0 0
SMALL
GASTEIGER

@<TRIPOS>ATOM
      1 C          62.3625   90.2609   10.1039 C.2     1  UNL1        0.2491
      2 O          62.9761   90.7764    8.8360 O.2     1  UNL1       -0.2699
      3 N          61.0156   89.6015   10.0713 N.am    1  UNL1       -0.2776
      4 C          64.5646   91.8185   13.0150 C.ar    1  UNL1        0.1723
      5 C          63.8313   91.6747   11.7144 C.ar    1  UNL1        0.0446
      6 C          63.0957   90.4047   11.4046 C.ar    1  UNL1        0.0568
      7 C          63.0934   89.2785   12.3954 C.ar    1  UNL1        0.0078
      8 C          63.8266   89.4224   13.6960 C.ar    1  UNL1        0.0402
      9 C          64.5623   90.6924   14.0058 C.ar    1  UNL1        0.1724
     10 O          65.2955   90.8362   15.3065 O.3     1  UNL1       -0.4684
     11 C          64.8378   91.8449   16.3179 C.3     1  UNL1        0.2526
     12 O          65.3002   93.0885   13.3248 O.3     1  UNL1       -0.4723
     13 C          66.4067   93.5530   12.4249 C.3     1  UNL1        0.2082
     14 C          67.0615   92.5878   11.4817 C.3     1  UNL1        0.0794
     15 C          67.3520   92.9998   10.0689 C.3     1  UNL1        0.1461
     16 C          67.4759   95.0790    8.5160 C.3     1  UNL1        0.1741
     17 O          67.8716   94.3773    9.7812 O.3     1  UNL1       -0.3510
     18 C          60.4019   89.0859   11.3393 C.3     1  UNL1        0.0757
     19 C          59.6050   90.0065   12.2152 C.3     1  UNL1        0.0215
     20 C          60.5853   87.6497   11.7312 C.3     1  UNL1        0.0215
     21 C          60.2823   89.4577    8.7707 C.3     1  UNL1        0.0974
     22 C          59.9115   88.0949    8.2654 C.3     1  UNL1        0.0642
     23 C          58.6014   87.7114    7.6436 C.3     1  UNL1        0.0728
     24 N          58.6659   86.2557    7.2872 N.3     1  UNL1       -0.2953
     25 C          60.0159   85.7396    7.6887 C.3     1  UNL1        0.0986
     26 C          60.7857   86.8762    8.2933 C.3     1  UNL1        0.1342
     27 H          58.5357   86.1394    6.2823 H       1  UNL1        0.1233
     28 O          62.1841   86.8065    8.8312 O.3     1  UNL1       -0.3500
     29 C          62.9603   85.5263    8.7389 C.3     1  UNL1        0.1686
     30 C          63.1789   84.6915    9.9659 C.ar    1  UNL1        0.0103
     31 C          63.9316   83.3977    9.8684 C.ar    1  UNL1       -0.0017
     32 C          64.1502   82.5630   11.0954 C.ar    1  UNL1        0.0029
     33 C          63.6161   83.0220   12.4197 C.ar    1  UNL1        0.0369
     34 C          62.8634   84.3157   12.5172 C.ar    1  UNL1        0.1385
     35 C          62.6447   85.1505   11.2902 C.ar    1  UNL1        0.0351
     36 O          62.3292   84.7747   13.8416 O.3     1  UNL1       -0.4714
     37 C          62.9944   84.3345   15.1119 C.3     1  UNL1        0.2525
@<TRIPOS>BOND
     1    16    17    1
     2    17    15    1
     3    15    14    1
     4    14    13    1
     5    13    12    1
     6    12     4    1
     7     4     5   ar
     8     5     6   ar
     9     6     1    1
    10     1     2    2
    11     1     3   am
    12     3    21    1
    13    22    21    1
    14    22    23    1
    15    23    24    1
    16    24    25    1
    17    25    26    1
    18    26    28    1
    19    28    29    1
    20    29    30    1
    21    30    31   ar
    22    31    32   ar
    23    32    33   ar
    24    33    34   ar
    25    34    36    1
    26    36    37    1
    27    34    35   ar
    28     3    18    1
    29    18    19    1
    30    18    20    1
    31     6     7   ar
    32     7     8   ar
    33     8     9   ar
    34     9    10    1
    35    10    11    1
    36     9     4   ar
    37    26    22    1
    38    35    30   ar
    39    24    27    1
