@<TRIPOS>MOLECULE
*****
 31 35 0 0 0
SMALL
GASTEIGER

@<TRIPOS>ATOM
      1 N          62.5217   87.2534   11.8071 N.3     1  UNL1       -0.2679
      2 C          62.8324   88.6947   11.5314 C.3     1  UNL1        0.0978
      3 C          62.4246   89.3138   10.2274 C.3     1  UNL1        0.0224
      4 C          62.7354   90.7552    9.9517 C.3     1  UNL1        0.0065
      5 C          63.4538   91.5774   10.9801 C.3     1  UNL1        0.0277
      6 C          63.8616   90.9584   12.2841 C.ar    1  UNL1       -0.0073
      7 C          64.5801   91.7807   13.3125 C.ar    1  UNL1       -0.0015
      8 C          64.9879   91.1617   14.6165 C.ar    1  UNL1        0.0203
      9 C          64.6772   89.7204   14.8922 C.ar    1  UNL1        0.0985
     10 N          63.9587   88.8981   13.8638 N.ar    1  UNL1       -0.2471
     11 C          63.5509   89.5171   12.5598 C.ar    1  UNL1        0.0695
     12 C          63.4052   86.4573   12.7212 C.3     1  UNL1        0.0886
     13 C          62.1140   79.7277   13.2649 C.ar    1  UNL1       -0.0003
     14 C          62.7219   80.0041   11.9218 C.ar    1  UNL1       -0.0003
     15 C          63.1017   81.4053   11.5444 C.ar    1  UNL1       -0.0045
     16 C          62.8736   82.5301   12.5102 C.ar    1  UNL1       -0.0234
     17 C          62.2657   82.2537   13.8533 C.ar    1  UNL1       -0.0103
     18 C          61.8859   80.8525   14.2307 C.ar    1  UNL1       -0.0032
     19 C          62.0376   83.3785   14.8192 C.3     1  UNL1        0.0953
     20 N          62.4174   84.7797   14.4418 N.3     1  UNL1       -0.2934
     21 C          63.0254   85.0561   13.0986 C.3     1  UNL1        0.0748
     22 C          63.2534   83.9313   12.1328 C.3     1  UNL1        0.0432
     23 H          63.0877   85.1013   15.1402 H       1  UNL1        0.1236
     24 C          61.3275   86.6082   11.1686 C.3     1  UNL1        0.0725
     25 C          61.3969   86.1470    9.7429 C.3     1  UNL1        0.0187
     26 C          60.2123   86.3219    8.8396 C.3     1  UNL1        0.0185
     27 C          60.2817   85.8607    7.4140 C.3     1  UNL1        0.0686
     28 N          61.5357   85.2245    6.8917 N.3     1  UNL1       -0.2975
     29 C          62.7203   85.0495    7.7951 C.3     1  UNL1        0.0686
     30 C          62.6509   85.5108    9.2207 C.3     1  UNL1        0.0185
     31 H          61.8477   85.7920    6.1037 H       1  UNL1        0.1232
@<TRIPOS>BOND
     1    13    14   ar
     2    14    15   ar
     3    15    16   ar
     4    16    17   ar
     5    17    18   ar
     6    17    19    1
     7    19    20    1
     8    20    21    1
     9    21    12    1
    10    12     1    1
    11     1    24    1
    12    24    25    1
    13    25    26    1
    14    26    27    1
    15    27    28    1
    16    28    29    1
    17    29    30    1
    18     2     1    1
    19     2     3    1
    20     3     4    1
    21     4     5    1
    22     5     6    1
    23     6     7   ar
    24     7     8   ar
    25     8     9   ar
    26     9    10   ar
    27    10    11   ar
    28    21    22    1
    29    18    13   ar
    30    30    25    1
    31    11     2    1
    32    22    16    1
    33    11     6   ar
    34    20    23    1
    35    28    31    1
@<TRIPOS>MOLECULE
*****
 31 35 0 0 0
SMALL
GASTEIGER

@<TRIPOS>ATOM
      1 N          61.7345   87.5985   11.4019 N.3     1  UNL1       -0.2679
      2 C          62.3332   86.3951   10.7362 C.3     1  UNL1        0.0978
      3 C          62.6126   86.4144    9.2626 C.3     1  UNL1        0.0224
      4 C          63.2114   85.2109    8.5969 C.3     1  UNL1        0.0065
      5 C          63.5305   83.9881    9.4048 C.3     1  UNL1        0.0277
      6 C          63.2511   83.9687   10.8784 C.ar    1  UNL1       -0.0073
      7 C          63.5703   82.7458   11.6863 C.ar    1  UNL1       -0.0015
      8 C          63.2908   82.7265   13.1599 C.ar    1  UNL1        0.0203
      9 C          62.6921   83.9299   13.8256 C.ar    1  UNL1        0.0985
     10 N          62.3729   85.1528   13.0177 N.ar    1  UNL1       -0.2471
     11 C          62.6524   85.1721   11.5441 C.ar    1  UNL1        0.0695
     12 C          62.5305   88.3705   12.4122 C.3     1  UNL1        0.0886
     13 C          66.2204   94.1345   11.7721 C.ar    1  UNL1       -0.0003
     14 C          66.4347   93.5640   13.1427 C.ar    1  UNL1       -0.0003
     15 C          65.7395   92.2971   13.5448 C.ar    1  UNL1       -0.0045
     16 C          64.8301   91.6007   12.5764 C.ar    1  UNL1       -0.0234
     17 C          64.6159   92.1712   11.2058 C.ar    1  UNL1       -0.0103
     18 C          65.3110   93.4381   10.8036 C.ar    1  UNL1       -0.0032
     19 C          63.7064   91.4748   10.2372 C.3     1  UNL1        0.0953
     20 N          63.0113   90.2078   10.6394 N.3     1  UNL1       -0.2934
     21 C          63.2256   89.6374   12.0101 C.3     1  UNL1        0.0748
     22 C          64.1350   90.3338   12.9785 C.3     1  UNL1        0.0432
     23 H          63.2984   89.4904    9.9736 H       1  UNL1        0.1236
     24 C          60.3398   88.0301   11.0574 C.3     1  UNL1        0.0725
     25 C          59.9033   88.0813    9.6232 C.3     1  UNL1        0.0187
     26 C          59.2822   86.8745    8.9847 C.3     1  UNL1        0.0185
     27 C          58.8457   86.9258    7.5506 C.3     1  UNL1        0.0686
     28 N          59.0304   88.1838    6.7549 N.3     1  UNL1       -0.2975
     29 C          59.6515   89.3907    7.3934 C.3     1  UNL1        0.0686
     30 C          60.0880   89.3394    8.8275 C.3     1  UNL1        0.0185
     31 H          58.1052   88.4656    6.4306 H       1  UNL1        0.1232
@<TRIPOS>BOND
     1    13    14   ar
     2    14    15   ar
     3    15    16   ar
     4    16    17   ar
     5    17    18   ar
     6    17    19    1
     7    19    20    1
     8    20    21    1
     9    21    12    1
    10    12     1    1
    11     1    24    1
    12    24    25    1
    13    25    26    1
    14    26    27    1
    15    27    28    1
    16    28    29    1
    17    29    30    1
    18     2     1    1
    19     2     3    1
    20     3     4    1
    21     4     5    1
    22     5     6    1
    23     6     7   ar
    24     7     8   ar
    25     8     9   ar
    26     9    10   ar
    27    10    11   ar
    28    21    22    1
    29    18    13   ar
    30    30    25    1
    31    11     2    1
    32    22    16    1
    33    11     6   ar
    34    20    23    1
    35    28    31    1
@<TRIPOS>MOLECULE
*****
 31 35 0 0 0
SMALL
GASTEIGER

@<TRIPOS>ATOM
      1 N          62.5013   86.1485   10.7220 N.3     1  UNL1       -0.2679
      2 C          63.0048   84.7701   11.0326 C.3     1  UNL1        0.0978
      3 C          63.5832   83.9192    9.9411 C.3     1  UNL1        0.0224
      4 C          64.0867   82.5408   10.2518 C.3     1  UNL1        0.0065
      5 C          64.0120   82.0134   11.6540 C.3     1  UNL1        0.0277
      6 C          63.4336   82.8643   12.7455 C.ar    1  UNL1       -0.0073
      7 C          63.3589   82.3369   14.1477 C.ar    1  UNL1       -0.0015
      8 C          62.7805   83.1878   15.2393 C.ar    1  UNL1        0.0203
      9 C          62.2770   84.5662   14.9286 C.ar    1  UNL1        0.0985
     10 N          62.3517   85.0936   13.5264 N.ar    1  UNL1       -0.2471
     11 C          62.9301   84.2427   12.4349 C.ar    1  UNL1        0.0695
     12 C          62.0463   87.0487   11.8322 C.3     1  UNL1        0.0886
     13 C          65.5633   92.9170   12.4982 C.ar    1  UNL1       -0.0003
     14 C          64.8924   92.8962   11.1568 C.ar    1  UNL1       -0.0003
     15 C          64.0549   91.7184   10.7553 C.ar    1  UNL1       -0.0045
     16 C          63.8882   90.5614   11.6953 C.ar    1  UNL1       -0.0234
     17 C          64.5591   90.5822   13.0367 C.ar    1  UNL1       -0.0103
     18 C          65.3966   91.7600   13.4381 C.ar    1  UNL1       -0.0032
     19 C          64.3924   89.4251   13.9767 C.3     1  UNL1        0.0953
     20 N          63.5548   88.2473   13.5752 N.3     1  UNL1       -0.2934
     21 C          62.8839   88.2265   12.2337 C.3     1  UNL1        0.0748
     22 C          63.0506   89.3835   11.2938 C.3     1  UNL1        0.0432
     23 H          62.8176   88.1582   14.2745 H       1  UNL1        0.1236
     24 C          62.4526   86.6267    9.3011 C.3     1  UNL1        0.0725
     25 C          61.1556   87.0962    8.7117 C.3     1  UNL1        0.0187
     26 C          60.8114   88.5561    8.7231 C.3     1  UNL1        0.0185
     27 C          59.5144   89.0255    8.1338 C.3     1  UNL1        0.0686
     28 N          58.5615   88.0350    7.5330 N.3     1  UNL1       -0.2975
     29 C          58.9057   86.5751    7.5216 C.3     1  UNL1        0.0686
     30 C          60.2027   86.1057    8.1109 C.3     1  UNL1        0.0185
     31 H          58.4224   88.3123    6.5614 H       1  UNL1        0.1232
@<TRIPOS>BOND
     1    13    14   ar
     2    14    15   ar
     3    15    16   ar
     4    16    17   ar
     5    17    18   ar
     6    17    19    1
     7    19    20    1
     8    20    21    1
     9    21    12    1
    10    12     1    1
    11     1    24    1
    12    24    25    1
    13    25    26    1
    14    26    27    1
    15    27    28    1
    16    28    29    1
    17    29    30    1
    18     2     1    1
    19     2     3    1
    20     3     4    1
    21     4     5    1
    22     5     6    1
    23     6     7   ar
    24     7     8   ar
    25     8     9   ar
    26     9    10   ar
    27    10    11   ar
    28    21    22    1
    29    18    13   ar
    30    30    25    1
    31    11     2    1
    32    22    16    1
    33    11     6   ar
    34    20    23    1
    35    28    31    1
@<TRIPOS>MOLECULE
*****
 31 35 0 0 0
SMALL
GASTEIGER

@<TRIPOS>ATOM
      1 N          62.4287   87.1301   11.1253 N.3     1  UNL1       -0.2679
      2 C          62.6934   85.7659   11.6901 C.3     1  UNL1        0.0978
      3 C          62.3172   84.5437   10.9062 C.3     1  UNL1        0.0224
      4 C          62.5819   83.1795   11.4710 C.3     1  UNL1        0.0065
      5 C          63.2229   83.0376   12.8197 C.3     1  UNL1        0.0277
      6 C          63.5991   84.2599   13.6036 C.ar    1  UNL1       -0.0073
      7 C          64.2401   84.1180   14.9523 C.ar    1  UNL1       -0.0015
      8 C          64.6163   85.3403   15.7362 C.ar    1  UNL1        0.0203
      9 C          64.3516   86.7044   15.1714 C.ar    1  UNL1        0.0985
     10 N          63.7106   86.8463   13.8228 N.ar    1  UNL1       -0.2471
     11 C          63.3344   85.6240   13.0389 C.ar    1  UNL1        0.0695
     12 C          62.1472   88.2810   12.0452 C.3     1  UNL1        0.0886
     13 C          66.3825   93.6065   13.0206 C.ar    1  UNL1       -0.0003
     14 C          66.3384   92.7789   14.2708 C.ar    1  UNL1       -0.0003
     15 C          65.4825   91.5483   14.3257 C.ar    1  UNL1       -0.0045
     16 C          64.6708   91.1453   13.1305 C.ar    1  UNL1       -0.0234
     17 C          64.7149   91.9729   11.8804 C.ar    1  UNL1       -0.0103
     18 C          65.5707   93.2036   11.8254 C.ar    1  UNL1       -0.0032
     19 C          63.9031   91.5700   10.6850 C.3     1  UNL1        0.0953
     20 N          63.0472   90.3394   10.7400 N.3     1  UNL1       -0.2934
     21 C          63.0031   89.5117   11.9903 C.3     1  UNL1        0.0748
     22 C          63.8149   89.9147   13.1855 C.3     1  UNL1        0.0432
     23 H          63.3666   89.7248    9.9912 H       1  UNL1        0.1236
     24 C          62.4453   87.3433    9.6407 C.3     1  UNL1        0.0725
     25 C          61.1553   87.4934    8.8900 C.3     1  UNL1        0.0187
     26 C          60.5890   88.8592    8.6375 C.3     1  UNL1        0.0185
     27 C          59.2990   89.0091    7.8869 C.3     1  UNL1        0.0686
     28 N          58.5754   87.7933    7.3888 N.3     1  UNL1       -0.2975
     29 C          59.1417   86.4275    7.6413 C.3     1  UNL1        0.0686
     30 C          60.4317   86.2775    8.3919 C.3     1  UNL1        0.0185
     31 H          58.4909   87.8946    6.3773 H       1  UNL1        0.1232
@<TRIPOS>BOND
     1    13    14   ar
     2    14    15   ar
     3    15    16   ar
     4    16    17   ar
     5    17    18   ar
     6    17    19    1
     7    19    20    1
     8    20    21    1
     9    21    12    1
    10    12     1    1
    11     1    24    1
    12    24    25    1
    13    25    26    1
    14    26    27    1
    15    27    28    1
    16    28    29    1
    17    29    30    1
    18     2     1    1
    19     2     3    1
    20     3     4    1
    21     4     5    1
    22     5     6    1
    23     6     7   ar
    24     7     8   ar
    25     8     9   ar
    26     9    10   ar
    27    10    11   ar
    28    21    22    1
    29    18    13   ar
    30    30    25    1
    31    11     2    1
    32    22    16    1
    33    11     6   ar
    34    20    23    1
    35    28    31    1
@<TRIPOS>MOLECULE
*****
 31 35 0 0 0
SMALL
GASTEIGER

@<TRIPOS>ATOM
      1 N          63.9282   89.4954   14.5360 N.3     1  UNL1       -0.2679
      2 C          63.5640   88.4434   15.5412 C.3     1  UNL1        0.0978
      3 C          63.1666   88.8407   16.9320 C.3     1  UNL1        0.0224
      4 C          62.8024   87.7886   17.9373 C.3     1  UNL1        0.0065
      5 C          62.8355   86.3394   17.5518 C.3     1  UNL1        0.0277
      6 C          63.2329   85.9422   16.1610 C.ar    1  UNL1       -0.0073
      7 C          63.2661   84.4930   15.7755 C.ar    1  UNL1       -0.0015
      8 C          63.6635   84.0958   14.3847 C.ar    1  UNL1        0.0203
      9 C          64.0277   85.1478   13.3794 C.ar    1  UNL1        0.0985
     10 N          63.9945   86.5970   13.7649 N.ar    1  UNL1       -0.2471
     11 C          63.5971   86.9942   15.1557 C.ar    1  UNL1        0.0695
     12 C          62.8503   90.2344   13.7996 C.3     1  UNL1        0.0886
     13 C          60.3990   86.5250    8.5573 C.ar    1  UNL1       -0.0003
     14 C          61.8735   86.2807    8.6846 C.ar    1  UNL1       -0.0003
     15 C          62.6586   86.9737    9.7585 C.ar    1  UNL1       -0.0045
     16 C          61.9693   87.9110   10.7051 C.ar    1  UNL1       -0.0234
     17 C          60.4949   88.1554   10.5779 C.ar    1  UNL1       -0.0103
     18 C          59.7097   87.4624    9.5040 C.ar    1  UNL1       -0.0032
     19 C          59.8055   89.0928   11.5245 C.3     1  UNL1        0.0953
     20 N          60.5906   89.7858   12.5985 N.3     1  UNL1       -0.2934
     21 C          62.0652   89.5414   12.7257 C.3     1  UNL1        0.0748
     22 C          62.7545   88.6040   11.7790 C.3     1  UNL1        0.0432
     23 H          60.1702   89.5197   13.4889 H       1  UNL1        0.1236
     24 C          65.3703   89.8085   14.2670 C.3     1  UNL1        0.0725
     25 C          65.8008   91.2283   14.0453 C.3     1  UNL1        0.0187
     26 C          65.5209   91.9008   12.7341 C.3     1  UNL1        0.0185
     27 C          65.9514   93.3205   12.5125 C.3     1  UNL1        0.0686
     28 N          66.6619   94.0676   13.6020 N.3     1  UNL1       -0.2975
     29 C          66.9418   93.3950   14.9132 C.3     1  UNL1        0.0686
     30 C          66.5113   91.9754   15.1348 C.3     1  UNL1        0.0185
     31 H          66.0990   94.8928   13.8086 H       1  UNL1        0.1232
@<TRIPOS>BOND
     1    13    14   ar
     2    14    15   ar
     3    15    16   ar
     4    16    17   ar
     5    17    18   ar
     6    17    19    1
     7    19    20    1
     8    20    21    1
     9    21    12    1
    10    12     1    1
    11     1    24    1
    12    24    25    1
    13    25    26    1
    14    26    27    1
    15    27    28    1
    16    28    29    1
    17    29    30    1
    18     2     1    1
    19     2     3    1
    20     3     4    1
    21     4     5    1
    22     5     6    1
    23     6     7   ar
    24     7     8   ar
    25     8     9   ar
    26     9    10   ar
    27    10    11   ar
    28    21    22    1
    29    18    13   ar
    30    30    25    1
    31    11     2    1
    32    22    16    1
    33    11     6   ar
    34    20    23    1
    35    28    31    1
@<TRIPOS>MOLECULE
*****
 31 35 0 0 0
SMALL
GASTEIGER

@<TRIPOS>ATOM
      1 N          63.7626   88.2433   13.8065 N.3     1  UNL1       -0.2679
      2 C          63.2929   88.8133   12.5009 C.3     1  UNL1        0.0978
      3 C          63.5953   90.2409   12.1537 C.3     1  UNL1        0.0224
      4 C          63.1256   90.8109   10.8481 C.3     1  UNL1        0.0065
      5 C          62.3535   89.9533    9.8898 C.3     1  UNL1        0.0277
      6 C          62.0512   88.5257   10.2370 C.ar    1  UNL1       -0.0073
      7 C          61.2791   87.6682    9.2786 C.ar    1  UNL1       -0.0015
      8 C          60.9768   86.2406    9.6258 C.ar    1  UNL1        0.0203
      9 C          61.4464   85.6705   10.9313 C.ar    1  UNL1        0.0985
     10 N          62.2185   86.5281   11.8897 N.ar    1  UNL1       -0.2471
     11 C          62.5208   87.9557   11.5425 C.ar    1  UNL1        0.0695
     12 C          64.5530   86.9685   13.8273 C.3     1  UNL1        0.0886
     13 C          61.9975   80.5956   13.5021 C.ar    1  UNL1       -0.0003
     14 C          62.9541   80.7997   12.3648 C.ar    1  UNL1       -0.0003
     15 C          63.6565   82.1151   12.2024 C.ar    1  UNL1       -0.0045
     16 C          63.4023   83.2264   13.1773 C.ar    1  UNL1       -0.0234
     17 C          62.4458   83.0223   14.3145 C.ar    1  UNL1       -0.0103
     18 C          61.7434   81.7069   14.4769 C.ar    1  UNL1       -0.0032
     19 C          62.1916   84.1337   15.2894 C.3     1  UNL1        0.0953
     20 N          62.8940   85.4491   15.1270 N.3     1  UNL1       -0.2934
     21 C          63.8506   85.6531   13.9897 C.3     1  UNL1        0.0748
     22 C          64.1047   84.5418   13.0148 C.3     1  UNL1        0.0432
     23 H          63.4194   85.6104   15.9862 H       1  UNL1        0.1236
     24 C          63.4419   88.9479   15.0912 C.3     1  UNL1        0.0725
     25 C          64.1594   90.2152   15.4509 C.3     1  UNL1        0.0187
     26 C          65.3974   90.6141   14.7038 C.3     1  UNL1        0.0185
     27 C          66.1148   91.8813   15.0635 C.3     1  UNL1        0.0686
     28 N          65.5942   92.7496   16.1703 N.3     1  UNL1       -0.2975
     29 C          64.3562   92.3508   16.9173 C.3     1  UNL1        0.0686
     30 C          63.6388   91.0836   16.5576 C.3     1  UNL1        0.0185
     31 H          65.4099   93.6666   15.7632 H       1  UNL1        0.1232
@<TRIPOS>BOND
     1    13    14   ar
     2    14    15   ar
     3    15    16   ar
     4    16    17   ar
     5    17    18   ar
     6    17    19    1
     7    19    20    1
     8    20    21    1
     9    21    12    1
    10    12     1    1
    11     1    24    1
    12    24    25    1
    13    25    26    1
    14    26    27    1
    15    27    28    1
    16    28    29    1
    17    29    30    1
    18     2     1    1
    19     2     3    1
    20     3     4    1
    21     4     5    1
    22     5     6    1
    23     6     7   ar
    24     7     8   ar
    25     8     9   ar
    26     9    10   ar
    27    10    11   ar
    28    21    22    1
    29    18    13   ar
    30    30    25    1
    31    11     2    1
    32    22    16    1
    33    11     6   ar
    34    20    23    1
    35    28    31    1
@<TRIPOS>MOLECULE
*****
 31 35 0 0 0
SMALL
GASTEIGER

@<TRIPOS>ATOM
      1 N          63.7084   89.8589   13.5619 N.3     1  UNL1       -0.2679
      2 C          64.4057   91.0141   12.9066 C.3     1  UNL1        0.0978
      3 C          64.1638   91.3113   11.4564 C.3     1  UNL1        0.0224
      4 C          64.8612   92.4665   10.8011 C.3     1  UNL1        0.0065
      5 C          65.8004   93.3244   11.5961 C.3     1  UNL1        0.0277
      6 C          66.0422   93.0271   13.0463 C.ar    1  UNL1       -0.0073
      7 C          66.9814   93.8850   13.8413 C.ar    1  UNL1       -0.0015
      8 C          67.2232   93.5877   15.2915 C.ar    1  UNL1        0.0203
      9 C          66.5259   92.4326   15.9468 C.ar    1  UNL1        0.0985
     10 N          65.5868   91.5747   15.1518 N.ar    1  UNL1       -0.2471
     11 C          65.3449   91.8720   13.7016 C.ar    1  UNL1        0.0695
     12 C          64.4790   88.9176   14.4395 C.3     1  UNL1        0.0886
     13 C          62.5131   82.3508   13.9270 C.ar    1  UNL1       -0.0003
     14 C          62.8672   82.8652   12.5632 C.ar    1  UNL1       -0.0003
     15 C          63.3312   84.2815   12.3929 C.ar    1  UNL1       -0.0045
     16 C          63.4411   85.1833   13.5865 C.ar    1  UNL1       -0.0234
     17 C          63.0870   84.6689   14.9503 C.ar    1  UNL1       -0.0103
     18 C          62.6230   83.2527   15.1205 C.ar    1  UNL1       -0.0032
     19 C          63.1969   85.5708   16.1439 C.3     1  UNL1        0.0953
     20 N          63.6609   86.9870   15.9736 N.3     1  UNL1       -0.2934
     21 C          64.0150   87.5014   14.6097 C.3     1  UNL1        0.0748
     22 C          63.9051   86.5995   13.4162 C.3     1  UNL1        0.0432
     23 H          64.4922   87.0964   16.5545 H       1  UNL1        0.1236
     24 C          62.2404   89.6451   13.3396 C.3     1  UNL1        0.0725
     25 C          61.7210   89.3880   11.9560 C.3     1  UNL1        0.0187
     26 C          60.5775   90.1983   11.4216 C.3     1  UNL1        0.0185
     27 C          60.0581   89.9412   10.0381 C.3     1  UNL1        0.0686
     28 N          60.6823   88.8738    9.1890 N.3     1  UNL1       -0.2975
     29 C          61.8258   88.0635    9.7234 C.3     1  UNL1        0.0686
     30 C          62.3452   88.3206   11.1069 C.3     1  UNL1        0.0185
     31 H          61.0163   89.3304    8.3403 H       1  UNL1        0.1232
@<TRIPOS>BOND
     1    13    14   ar
     2    14    15   ar
     3    15    16   ar
     4    16    17   ar
     5    17    18   ar
     6    17    19    1
     7    19    20    1
     8    20    21    1
     9    21    12    1
    10    12     1    1
    11     1    24    1
    12    24    25    1
    13    25    26    1
    14    26    27    1
    15    27    28    1
    16    28    29    1
    17    29    30    1
    18     2     1    1
    19     2     3    1
    20     3     4    1
    21     4     5    1
    22     5     6    1
    23     6     7   ar
    24     7     8   ar
    25     8     9   ar
    26     9    10   ar
    27    10    11   ar
    28    21    22    1
    29    18    13   ar
    30    30    25    1
    31    11     2    1
    32    22    16    1
    33    11     6   ar
    34    20    23    1
    35    28    31    1
@<TRIPOS>MOLECULE
*****
 31 35 0 0 0
SMALL
GASTEIGER

@<TRIPOS>ATOM
      1 N          62.5491   87.3835   11.5271 N.3     1  UNL1       -0.2679
      2 C          63.1916   86.5826   12.6206 C.3     1  UNL1        0.0978
      3 C          63.8498   87.2803   13.7738 C.3     1  UNL1        0.0224
      4 C          64.4923   86.4793   14.8673 C.3     1  UNL1        0.0065
      5 C          64.4766   84.9806   14.8075 C.3     1  UNL1        0.0277
      6 C          63.8184   84.2828   13.6543 C.ar    1  UNL1       -0.0073
      7 C          63.8026   82.7841   13.5945 C.ar    1  UNL1       -0.0015
      8 C          63.1444   82.0864   12.4413 C.ar    1  UNL1        0.0203
      9 C          62.5019   82.8873   11.3479 C.ar    1  UNL1        0.0985
     10 N          62.5177   84.3860   11.4076 N.ar    1  UNL1       -0.2471
     11 C          63.1759   85.0838   12.5609 C.ar    1  UNL1        0.0695
     12 C          62.0499   88.7700   11.8072 C.3     1  UNL1        0.0886
     13 C          66.6163   93.6148   13.5176 C.ar    1  UNL1       -0.0003
     14 C          66.3347   92.7600   14.7175 C.ar    1  UNL1       -0.0003
     15 C          65.3650   91.6201   14.6155 C.ar    1  UNL1       -0.0045
     16 C          64.6771   91.3350   13.3134 C.ar    1  UNL1       -0.0234
     17 C          64.9587   92.1898   12.1135 C.ar    1  UNL1       -0.0103
     18 C          65.9283   93.3297   12.2155 C.ar    1  UNL1       -0.0032
     19 C          64.2707   91.9047   10.8113 C.3     1  UNL1        0.0953
     20 N          63.3011   90.7648   10.7093 N.3     1  UNL1       -0.2934
     21 C          63.0195   89.9099   11.9093 C.3     1  UNL1        0.0748
     22 C          63.7074   90.1951   13.2113 C.3     1  UNL1        0.0432
     23 H          63.6529   90.1432    9.9810 H       1  UNL1        0.1236
     24 C          62.4059   86.7980   10.1536 C.3     1  UNL1        0.0725
     25 C          61.2532   87.2017    9.2827 C.3     1  UNL1        0.0187
     26 C          60.9431   88.6545    9.0747 C.3     1  UNL1        0.0185
     27 C          59.7905   89.0581    8.2038 C.3     1  UNL1        0.0686
     28 N          58.9480   88.0090    7.5409 N.3     1  UNL1       -0.2975
     29 C          59.2581   86.5563    7.7488 C.3     1  UNL1        0.0686
     30 C          60.4107   86.1526    8.6197 C.3     1  UNL1        0.0185
     31 H          59.0003   88.1805    6.5368 H       1  UNL1        0.1232
@<TRIPOS>BOND
     1    13    14   ar
     2    14    15   ar
     3    15    16   ar
     4    16    17   ar
     5    17    18   ar
     6    17    19    1
     7    19    20    1
     8    20    21    1
     9    21    12    1
    10    12     1    1
    11     1    24    1
    12    24    25    1
    13    25    26    1
    14    26    27    1
    15    27    28    1
    16    28    29    1
    17    29    30    1
    18     2     1    1
    19     2     3    1
    20     3     4    1
    21     4     5    1
    22     5     6    1
    23     6     7   ar
    24     7     8   ar
    25     8     9   ar
    26     9    10   ar
    27    10    11   ar
    28    21    22    1
    29    18    13   ar
    30    30    25    1
    31    11     2    1
    32    22    16    1
    33    11     6   ar
    34    20    23    1
    35    28    31    1
@<TRIPOS>MOLECULE
*****
 31 35 0 0 0
SMALL
GASTEIGER

@<TRIPOS>ATOM
      1 N          63.1017   85.3403   12.9214 N.3     1  UNL1       -0.2679
      2 C          63.3370   84.1185   12.0838 C.3     1  UNL1        0.0978
      3 C          64.0200   84.2410   10.7539 C.3     1  UNL1        0.0224
      4 C          64.2553   83.0190    9.9163 C.3     1  UNL1        0.0065
      5 C          63.8077   81.6747   10.4085 C.3     1  UNL1        0.0277
      6 C          63.1247   81.5522   11.7383 C.ar    1  UNL1       -0.0073
      7 C          62.6771   80.2078   12.2305 C.ar    1  UNL1       -0.0015
      8 C          61.9941   80.0853   13.5604 C.ar    1  UNL1        0.0203
      9 C          61.7588   81.3072   14.3980 C.ar    1  UNL1        0.0985
     10 N          62.2064   82.6515   13.9058 N.ar    1  UNL1       -0.2471
     11 C          62.8894   82.7740   12.5760 C.ar    1  UNL1        0.0695
     12 C          61.7609   86.0128   12.9068 C.3     1  UNL1        0.0886
     13 C          59.5535   88.9482    7.0964 C.ar    1  UNL1       -0.0003
     14 C          59.2681   87.4766    7.0422 C.ar    1  UNL1       -0.0003
     15 C          59.6525   86.5952    8.1935 C.ar    1  UNL1       -0.0045
     16 C          60.3223   87.1854    9.3989 C.ar    1  UNL1       -0.0234
     17 C          60.6077   88.6570    9.4530 C.ar    1  UNL1       -0.0103
     18 C          60.2233   89.5383    8.3017 C.ar    1  UNL1       -0.0032
     19 C          61.2775   89.2472   10.6584 C.3     1  UNL1        0.0953
     20 N          61.6619   88.3659   11.8097 N.3     1  UNL1       -0.2934
     21 C          61.3765   86.8942   11.7555 C.3     1  UNL1        0.0748
     22 C          60.7067   86.3040   10.5501 C.3     1  UNL1        0.0432
     23 H          61.1804   88.7291   12.6322 H       1  UNL1        0.1236
     24 C          64.2070   85.8896   13.7737 C.3     1  UNL1        0.0725
     25 C          63.9223   86.9879   14.7550 C.3     1  UNL1        0.0187
     26 C          63.4018   86.6559   16.1220 C.3     1  UNL1        0.0185
     27 C          63.1171   87.7541   17.1032 C.3     1  UNL1        0.0686
     28 N          63.3529   89.1843   16.7174 N.3     1  UNL1       -0.2975
     29 C          63.8734   89.5163   15.3504 C.3     1  UNL1        0.0686
     30 C          64.1581   88.4181   14.3692 C.3     1  UNL1        0.0185
     31 H          64.0221   89.5635   17.3874 H       1  UNL1        0.1232
@<TRIPOS>BOND
     1    13    14   ar
     2    14    15   ar
     3    15    16   ar
     4    16    17   ar
     5    17    18   ar
     6    17    19    1
     7    19    20    1
     8    20    21    1
     9    21    12    1
    10    12     1    1
    11     1    24    1
    12    24    25    1
    13    25    26    1
    14    26    27    1
    15    27    28    1
    16    28    29    1
    17    29    30    1
    18     2     1    1
    19     2     3    1
    20     3     4    1
    21     4     5    1
    22     5     6    1
    23     6     7   ar
    24     7     8   ar
    25     8     9   ar
    26     9    10   ar
    27    10    11   ar
    28    21    22    1
    29    18    13   ar
    30    30    25    1
    31    11     2    1
    32    22    16    1
    33    11     6   ar
    34    20    23    1
    35    28    31    1
