@<TRIPOS>MOLECULE
*****
 54 61 0 0 0
SMALL
GASTEIGER

@<TRIPOS>ATOM
      1 C          61.1456   88.5466    9.0649 C.2     1  UNL1        0.1542
      2 N          60.4176   89.6509    8.3574 N.2     1  UNL1       -0.0655
      3 C          59.5424   89.3383    7.1799 C.cat   1  UNL1        0.4642
      4 N          59.3953   87.9215    6.7099 N.2     1  UNL1        0.0296
      5 C          60.1234   86.8172    7.4174 C.2     1  UNL1        0.3685
      6 N          60.1719   85.3362    7.1840 N.2     1  UNL1       -0.0340
      7 C          61.0770   84.7336    8.2172 C.2     1  UNL1        0.2321
      8 C          61.5879   85.8420    9.0892 C.2     1  UNL1        0.0439
      9 C          60.9985   87.1298    8.5949 C.3     1  UNL1        0.1946
     10 N          64.9976   90.5726   13.8252 N.am    1  UNL1       -0.2526
     11 C          64.7686   89.1910   14.3622 C.3     1  UNL1        0.1229
     12 C          63.8962   88.2293   13.6111 C.3     1  UNL1        0.1280
     13 N          63.2529   88.6495   12.3228 N.ar    1  UNL1       -0.3206
     14 C          62.3498   87.9252   11.3690 C.ar    1  UNL1        0.0787
     15 C          62.0207   88.8592   10.2424 C.ar    1  UNL1        0.0498
     16 C          62.7204   90.1608   10.4999 C.ar    1  UNL1        0.0259
     17 C          63.4819   90.0312   11.7857 C.ar    1  UNL1        0.1147
     18 C          64.3543   90.9928   12.5369 C.2     1  UNL1        0.2687
     19 O          64.5834   92.3745   11.9999 O.2     1  UNL1       -0.2680
     20 C          67.2325   91.8782   14.0515 C.ar    1  UNL1       -0.0088
     21 C          68.1049   92.8398   14.8027 C.ar    1  UNL1       -0.0031
     22 C          67.6147   93.4576   16.0787 C.ar    1  UNL1       -0.0006
     23 C          66.2523   93.1137   16.6035 C.ar    1  UNL1       -0.0031
     24 C          65.3799   92.1520   15.8523 C.ar    1  UNL1       -0.0088
     25 C          65.8701   91.5343   14.5763 C.ar    1  UNL1        0.0462
     26 C          67.8253   92.0914   11.5309 C.3     1  UNL1        0.0051
     27 C          67.7226   91.2604   12.7756 C.3     1  UNL1        0.0276
     28 C          64.0174   91.8082   16.3772 C.3     1  UNL1        0.0276
     29 C          63.6888   90.3900   16.7388 C.3     1  UNL1        0.0051
     30 N          58.8144   90.4426    6.4724 N.pl3   1  UNL1       -0.1896
     31 H          57.9122   90.7049    6.7664 H       1  UNL1        0.2524
     32 C          59.4612   91.1474    5.3170 C.ar    1  UNL1        0.1435
     33 C          60.9067   90.9002    5.0016 C.ar    1  UNL1        0.0356
     34 C          61.5534   91.6050    3.8462 C.ar    1  UNL1        0.0174
     35 C          60.7546   92.5570    3.0061 C.ar    1  UNL1        0.0511
     36 C          59.3092   92.8042    3.3214 C.ar    1  UNL1        0.0541
     37 C          58.6625   92.0994    4.4769 C.ar    1  UNL1        0.1684
     38 N          61.4014   93.2618    1.8506 N.pl3   1  UNL1       -0.3074
     39 C          62.8737   93.1091    1.6080 C.3     1  UNL1        0.0913
     40 C          63.5205   93.8139    0.4526 C.3     1  UNL1        0.0305
     41 C          62.6948   94.6713   -0.4602 C.3     1  UNL1        0.0801
     42 C          61.2225   94.8240   -0.2175 C.3     1  UNL1        0.0305
     43 C          60.5758   94.1192    0.9379 C.3     1  UNL1        0.0913
     44 C          63.3415   95.3761   -1.6156 C.2     1  UNL1        0.2253
     45 O          63.5883   96.8542   -1.5497 O.2     1  UNL1       -0.2749
     46 N          63.7415   94.6028   -2.8371 N.am    1  UNL1       -0.2767
     47 C          63.4947   93.1247   -2.9031 C.3     1  UNL1        0.1107
     48 C          63.8947   92.3514   -4.1246 C.3     1  UNL1        0.0939
     49 N          64.5413   93.0561   -5.2801 N.3     1  UNL1       -0.2686
     50 C          64.9413   92.2827   -6.5016 C.3     1  UNL1        0.0897
     51 C          64.7881   94.5342   -5.2140 C.3     1  UNL1        0.0939
     52 C          64.3881   95.3075   -3.9926 C.3     1  UNL1        0.1107
     53 O          57.2170   92.3466    4.7922 O.3     1  UNL1       -0.4687
     54 C          56.2800   91.1891    4.9725 C.3     1  UNL1        0.2526
@<TRIPOS>BOND
     1    26    27    1
     2    27    20    1
     3    20    21   ar
     4    21    22   ar
     5    22    23   ar
     6    23    24   ar
     7    24    28    1
     8    28    29    1
     9    24    25   ar
    10    25    10    1
    11    10    11    1
    12    11    12    1
    13    12    13    1
    14    13    14   ar
    15    14    15   ar
    16    15     1    1
    17     1     2    2
    18     2     3    1
    19     3    30    1
    20    30    32    1
    21    32    33   ar
    22    33    34   ar
    23    34    35   ar
    24    35    38    1
    25    38    39    1
    26    39    40    1
    27    40    41    1
    28    41    44    1
    29    44    45    2
    30    44    46   am
    31    46    47    1
    32    47    48    1
    33    48    49    1
    34    49    50    1
    35    49    51    1
    36    51    52    1
    37    41    42    1
    38    42    43    1
    39    35    36   ar
    40    36    37   ar
    41    37    53    1
    42    53    54    1
    43     3     4    2
    44     4     5    1
    45     5     6    2
    46     6     7    1
    47     7     8    2
    48     8     9    1
    49    15    16   ar
    50    16    17   ar
    51    17    18    1
    52    18    19    2
    53    25    20   ar
    54    18    10   am
    55    17    13   ar
    56     9     1    1
    57    37    32   ar
    58     9     5    1
    59    43    38    1
    60    52    46    1
    61    30    31    1
@<TRIPOS>MOLECULE
*****
 54 61 0 0 0
SMALL
GASTEIGER

@<TRIPOS>ATOM
      1 C          61.2385   88.5716    9.2036 C.2     1  UNL1        0.1542
      2 N          60.4785   89.6589    8.5035 N.2     1  UNL1       -0.0655
      3 C          59.5882   89.3244    7.3434 C.cat   1  UNL1        0.4642
      4 N          59.4581   87.9026    6.8835 N.2     1  UNL1        0.0296
      5 C          60.2181   86.8154    7.5836 C.2     1  UNL1        0.3685
      6 N          60.2889   85.3342    7.3570 N.2     1  UNL1       -0.0340
      7 C          61.2229   84.7534    8.3769 C.2     1  UNL1        0.2321
      8 C          61.7293   85.8754    9.2340 C.2     1  UNL1        0.0439
      9 C          61.1084   87.1498    8.7436 C.3     1  UNL1        0.1946
     10 N          65.2134   90.6553   13.8362 N.am    1  UNL1       -0.2526
     11 C          64.8672   89.3454   14.4796 C.3     1  UNL1        0.1229
     12 C          63.9232   88.4006   13.7967 C.3     1  UNL1        0.1280
     13 N          63.3254   88.7659   12.4704 N.ar    1  UNL1       -0.3206
     14 C          62.3718   88.0429   11.5660 C.ar    1  UNL1        0.0787
     15 C          62.1287   88.9061   10.3636 C.ar    1  UNL1        0.0498
     16 C          62.9320   90.1626   10.5249 C.ar    1  UNL1        0.0259
     17 C          63.6716   90.0759   11.8270 C.ar    1  UNL1        0.1147
     18 C          64.6157   91.0206   12.5098 C.2     1  UNL1        0.2687
     19 O          64.9619   92.3306   11.8664 O.2     1  UNL1       -0.2680
     20 C          65.7882   92.2043   15.8413 C.ar    1  UNL1       -0.0088
     21 C          66.7322   93.1491   16.5241 C.ar    1  UNL1       -0.0031
     22 C          68.0456   93.4896   15.8846 C.ar    1  UNL1       -0.0006
     23 C          68.4150   92.8854   14.5623 C.ar    1  UNL1       -0.0031
     24 C          67.4709   91.9406   13.8795 C.ar    1  UNL1       -0.0088
     25 C          66.1575   91.6001   14.5190 C.ar    1  UNL1        0.0462
     26 C          63.6954   92.9225   17.2033 C.3     1  UNL1        0.0051
     27 C          64.4748   91.8638   16.4808 C.3     1  UNL1        0.0276
     28 C          67.8403   91.3364   12.5572 C.3     1  UNL1        0.0276
     29 C          68.4138   92.1991   11.4723 C.3     1  UNL1        0.0051
     30 N          58.8283   90.4117    6.6434 N.pl3   1  UNL1       -0.1896
     31 H          57.9282   90.6618    6.9541 H       1  UNL1        0.2524
     32 C          59.4397   91.1181    5.4698 C.ar    1  UNL1        0.1435
     33 C          60.8729   90.8658    5.1061 C.ar    1  UNL1        0.0356
     34 C          61.4843   91.5722    3.9325 C.ar    1  UNL1        0.0174
     35 C          60.6625   92.5309    3.1227 C.ar    1  UNL1        0.0511
     36 C          59.2293   92.7831    3.4865 C.ar    1  UNL1        0.0541
     37 C          58.6180   92.0767    4.6600 C.ar    1  UNL1        0.1684
     38 N          61.2740   93.2372    1.9491 N.pl3   1  UNL1       -0.3074
     39 C          62.7657   93.3355    1.8269 C.3     1  UNL1        0.0913
     40 C          63.3772   94.0418    0.6533 C.3     1  UNL1        0.0305
     41 C          62.4968   94.6499   -0.3979 C.3     1  UNL1        0.0801
     42 C          61.0050   94.5517   -0.2756 C.3     1  UNL1        0.0305
     43 C          60.3936   93.8453    0.8979 C.3     1  UNL1        0.0913
     44 C          63.1082   95.3563   -1.5715 C.2     1  UNL1        0.2253
     45 O          63.2149   96.8525   -1.5740 O.2     1  UNL1       -0.2749
     46 N          63.6128   94.5664   -2.7425 N.am    1  UNL1       -0.2767
     47 C          63.5061   93.0703   -2.7401 C.3     1  UNL1        0.1107
     48 C          64.0108   92.2804   -3.9111 C.3     1  UNL1        0.0939
     49 N          64.6221   92.9867   -5.0848 N.3     1  UNL1       -0.2686
     50 C          65.1268   92.1968   -6.2558 C.3     1  UNL1        0.0897
     51 C          64.7288   94.4828   -5.0872 C.3     1  UNL1        0.0939
     52 C          64.2242   95.2727   -3.9162 C.3     1  UNL1        0.1107
     53 O          57.1848   92.3290    5.0238 O.3     1  UNL1       -0.4687
     54 C          56.1413   91.2941    4.7234 C.3     1  UNL1        0.2526
@<TRIPOS>BOND
     1    26    27    1
     2    27    20    1
     3    20    21   ar
     4    21    22   ar
     5    22    23   ar
     6    23    24   ar
     7    24    28    1
     8    28    29    1
     9    24    25   ar
    10    25    10    1
    11    10    11    1
    12    11    12    1
    13    12    13    1
    14    13    14   ar
    15    14    15   ar
    16    15     1    1
    17     1     2    2
    18     2     3    1
    19     3    30    1
    20    30    32    1
    21    32    33   ar
    22    33    34   ar
    23    34    35   ar
    24    35    38    1
    25    38    39    1
    26    39    40    1
    27    40    41    1
    28    41    44    1
    29    44    45    2
    30    44    46   am
    31    46    47    1
    32    47    48    1
    33    48    49    1
    34    49    50    1
    35    49    51    1
    36    51    52    1
    37    41    42    1
    38    42    43    1
    39    35    36   ar
    40    36    37   ar
    41    37    53    1
    42    53    54    1
    43     3     4    2
    44     4     5    1
    45     5     6    2
    46     6     7    1
    47     7     8    2
    48     8     9    1
    49    15    16   ar
    50    16    17   ar
    51    17    18    1
    52    18    19    2
    53    25    20   ar
    54    18    10   am
    55    17    13   ar
    56     9     1    1
    57    37    32   ar
    58     9     5    1
    59    43    38    1
    60    52    46    1
    61    30    31    1
@<TRIPOS>MOLECULE
*****
 54 61 0 0 0
SMALL
GASTEIGER

@<TRIPOS>ATOM
      1 C          61.4399   89.3282    9.3453 C.2     1  UNL1        0.1542
      2 N          60.5700   90.0017    8.3257 N.2     1  UNL1       -0.0655
      3 C          59.5588   89.2032    7.5575 C.cat   1  UNL1        0.4642
      4 N          59.4176   87.7312    7.8089 N.2     1  UNL1        0.0296
      5 C          60.2876   87.0577    8.8285 C.2     1  UNL1        0.3685
      6 N          60.3753   85.6328    9.2891 N.2     1  UNL1       -0.0340
      7 C          61.4406   85.5507   10.3419 C.2     1  UNL1        0.2321
      8 C          62.0113   86.9248   10.5320 C.2     1  UNL1        0.0439
      9 C          61.2987   87.8562    9.5967 C.3     1  UNL1        0.1946
     10 N          65.7814   92.2037   13.1513 N.am    1  UNL1       -0.2526
     11 C          65.7350   93.2732   12.1006 C.3     1  UNL1        0.1229
     12 C          64.8362   93.1164   10.9100 C.3     1  UNL1        0.1280
     13 N          63.9837   91.8902   10.7701 N.ar    1  UNL1       -0.3206
     14 C          63.0078   91.4613    9.7149 C.ar    1  UNL1        0.0787
     15 C          62.4510   90.1267   10.1134 C.ar    1  UNL1        0.0498
     16 C          63.0829   89.7308   11.4150 C.ar    1  UNL1        0.0259
     17 C          64.0301   90.8207   11.8209 C.ar    1  UNL1        0.1147
     18 C          64.9290   90.9774   13.0114 C.2     1  UNL1        0.2687
     19 O          64.9754   89.9079   14.0622 O.2     1  UNL1       -0.2680
     20 C          68.1668   92.4323   14.1552 C.ar    1  UNL1       -0.0088
     21 C          69.0656   92.5890   15.3459 C.ar    1  UNL1       -0.0031
     22 C          68.4778   92.6739   16.7232 C.ar    1  UNL1       -0.0006
     23 C          66.9912   92.6020   16.9100 C.ar    1  UNL1       -0.0031
     24 C          66.0924   92.4453   15.7193 C.ar    1  UNL1       -0.0088
     25 C          66.6803   92.3604   14.3420 C.ar    1  UNL1        0.0462
     26 C          68.7331   91.0462   12.0319 C.3     1  UNL1        0.0051
     27 C          68.7546   92.3475   12.7778 C.3     1  UNL1        0.0276
     28 C          64.6058   92.3734   15.9062 C.3     1  UNL1        0.0276
     29 C          64.0061   91.2758   16.7342 C.3     1  UNL1        0.0051
     30 N          58.6889   89.8768    6.5379 N.pl3   1  UNL1       -0.1896
     31 H          57.7115   89.7640    6.5731 H       1  UNL1        0.2524
     32 C          59.3083   90.7222    5.4647 C.ar    1  UNL1        0.1435
     33 C          60.7416   90.5102    5.0766 C.ar    1  UNL1        0.0356
     34 C          61.3610   91.3556    4.0035 C.ar    1  UNL1        0.0174
     35 C          60.5469   92.4130    3.3183 C.ar    1  UNL1        0.0511
     36 C          59.1136   92.6250    3.7064 C.ar    1  UNL1        0.0541
     37 C          58.4943   91.7795    4.7796 C.ar    1  UNL1        0.1684
     38 N          61.1662   93.2584    2.2451 N.pl3   1  UNL1       -0.3074
     39 C          62.4059   92.7894    1.5428 C.3     1  UNL1        0.0913
     40 C          63.0252   93.6348    0.4696 C.3     1  UNL1        0.0305
     41 C          62.4049   94.9492    0.0988 C.3     1  UNL1        0.0801
     42 C          61.1653   95.4182    0.8012 C.3     1  UNL1        0.0305
     43 C          60.5459   94.5728    1.8744 C.3     1  UNL1        0.0913
     44 C          63.0242   95.7947   -0.9744 C.2     1  UNL1        0.2253
     45 O          64.0205   96.8557   -0.6119 O.2     1  UNL1       -0.2749
     46 N          62.6471   95.5790   -2.4101 N.am    1  UNL1       -0.2767
     47 C          61.6508   94.5179   -2.7726 C.3     1  UNL1        0.1107
     48 C          61.2736   94.3023   -4.2083 C.3     1  UNL1        0.0939
     49 N          61.8929   95.1477   -5.2816 N.3     1  UNL1       -0.2686
     50 C          61.5158   94.9320   -6.7173 C.3     1  UNL1        0.0897
     51 C          62.8892   96.2087   -4.9190 C.3     1  UNL1        0.0939
     52 C          63.2663   96.4244   -3.4833 C.3     1  UNL1        0.1107
     53 O          57.0610   91.9915    5.1677 O.3     1  UNL1       -0.4687
     54 C          56.0760   90.8670    5.0433 C.3     1  UNL1        0.2526
@<TRIPOS>BOND
     1    26    27    1
     2    27    20    1
     3    20    21   ar
     4    21    22   ar
     5    22    23   ar
     6    23    24   ar
     7    24    28    1
     8    28    29    1
     9    24    25   ar
    10    25    10    1
    11    10    11    1
    12    11    12    1
    13    12    13    1
    14    13    14   ar
    15    14    15   ar
    16    15     1    1
    17     1     2    2
    18     2     3    1
    19     3    30    1
    20    30    32    1
    21    32    33   ar
    22    33    34   ar
    23    34    35   ar
    24    35    38    1
    25    38    39    1
    26    39    40    1
    27    40    41    1
    28    41    44    1
    29    44    45    2
    30    44    46   am
    31    46    47    1
    32    47    48    1
    33    48    49    1
    34    49    50    1
    35    49    51    1
    36    51    52    1
    37    41    42    1
    38    42    43    1
    39    35    36   ar
    40    36    37   ar
    41    37    53    1
    42    53    54    1
    43     3     4    2
    44     4     5    1
    45     5     6    2
    46     6     7    1
    47     7     8    2
    48     8     9    1
    49    15    16   ar
    50    16    17   ar
    51    17    18    1
    52    18    19    2
    53    25    20   ar
    54    18    10   am
    55    17    13   ar
    56     9     1    1
    57    37    32   ar
    58     9     5    1
    59    43    38    1
    60    52    46    1
    61    30    31    1
@<TRIPOS>MOLECULE
*****
 54 61 0 0 0
SMALL
GASTEIGER

@<TRIPOS>ATOM
      1 C          61.4443   89.3309    9.3838 C.2     1  UNL1        0.1542
      2 N          60.5719   90.0006    8.3638 N.2     1  UNL1       -0.0655
      3 C          59.5536   89.2008    7.6066 C.cat   1  UNL1        0.4642
      4 N          59.4077   87.7312    7.8693 N.2     1  UNL1        0.0296
      5 C          60.2802   87.0615    8.8893 C.2     1  UNL1        0.3685
      6 N          60.3645   85.6396    9.3597 N.2     1  UNL1       -0.0340
      7 C          61.4349   85.5607   10.4076 C.2     1  UNL1        0.2321
      8 C          62.0121   86.9338   10.5849 C.2     1  UNL1        0.0439
      9 C          61.2985   87.8614    9.6466 C.3     1  UNL1        0.1946
     10 N          65.8228   92.2123   13.1428 N.am    1  UNL1       -0.2526
     11 C          65.7635   93.2818   12.0928 C.3     1  UNL1        0.1229
     12 C          64.8519   93.1239   10.9120 C.3     1  UNL1        0.1280
     13 N          63.9998   91.8964   10.7812 N.ar    1  UNL1       -0.3206
     14 C          63.0131   91.4663    9.7366 C.ar    1  UNL1        0.0787
     15 C          62.4626   90.1308   10.1410 C.ar    1  UNL1        0.0498
     16 C          63.1091   89.7357   11.4356 C.ar    1  UNL1        0.0259
     17 C          64.0591   90.8269   11.8313 C.ar    1  UNL1        0.1147
     18 C          64.9706   90.9848   13.0120 C.2     1  UNL1        0.2687
     19 O          65.0300   89.9153   14.0621 O.2     1  UNL1       -0.2680
     20 C          66.1608   92.4672   15.7061 C.ar    1  UNL1       -0.0088
     21 C          67.0723   92.6250   16.8870 C.ar    1  UNL1       -0.0031
     22 C          68.5574   92.6859   16.6851 C.ar    1  UNL1       -0.0006
     23 C          69.1309   92.5889   15.3025 C.ar    1  UNL1       -0.0031
     24 C          68.2194   92.4311   14.1217 C.ar    1  UNL1       -0.0088
     25 C          66.7343   92.3702   14.3236 C.ar    1  UNL1        0.0462
     26 C          64.0866   91.3905   16.8415 C.3     1  UNL1        0.0051
     27 C          64.6757   92.4063   15.9080 C.3     1  UNL1        0.0276
     28 C          68.7931   92.3341   12.7391 C.3     1  UNL1        0.0276
     29 C          68.7531   91.0293   12.0003 C.3     1  UNL1        0.0051
     30 N          58.6812   89.8706    6.5867 N.pl3   1  UNL1       -0.1896
     31 H          57.7042   89.7540    6.6218 H       1  UNL1        0.2524
     32 C          59.2973   90.7179    5.5132 C.ar    1  UNL1        0.1435
     33 C          60.7301   90.5079    5.1218 C.ar    1  UNL1        0.0356
     34 C          61.3462   91.3553    4.0483 C.ar    1  UNL1        0.0174
     35 C          60.5296   92.4127    3.3662 C.ar    1  UNL1        0.0511
     36 C          59.0969   92.6227    3.7576 C.ar    1  UNL1        0.0541
     37 C          58.4808   91.7752    4.8311 C.ar    1  UNL1        0.1684
     38 N          61.1458   93.2600    2.2927 N.pl3   1  UNL1       -0.3074
     39 C          62.4088   92.8140    1.6175 C.3     1  UNL1        0.0913
     40 C          63.0249   93.6613    0.5441 C.3     1  UNL1        0.0305
     41 C          62.3781   94.9547    0.1458 C.3     1  UNL1        0.0801
     42 C          61.1151   95.4008    0.8210 C.3     1  UNL1        0.0305
     43 C          60.4989   94.5534    1.8945 C.3     1  UNL1        0.0913
     44 C          62.9942   95.8021   -0.9277 C.2     1  UNL1        0.2253
     45 O          63.9989   96.8560   -0.5672 O.2     1  UNL1       -0.2749
     46 N          62.6055   95.5957   -2.3616 N.am    1  UNL1       -0.2767
     47 C          61.6008   94.5419   -2.7222 C.3     1  UNL1        0.1107
     48 C          61.2121   94.3354   -4.1561 C.3     1  UNL1        0.0939
     49 N          61.8281   95.1828   -5.2297 N.3     1  UNL1       -0.2686
     50 C          61.4395   94.9763   -6.6636 C.3     1  UNL1        0.0897
     51 C          62.8329   96.2366   -4.8691 C.3     1  UNL1        0.0939
     52 C          63.2215   96.4430   -3.4352 C.3     1  UNL1        0.1107
     53 O          57.0481   91.9852    5.2224 O.3     1  UNL1       -0.4687
     54 C          56.0209   90.9415    4.8970 C.3     1  UNL1        0.2526
@<TRIPOS>BOND
     1    26    27    1
     2    27    20    1
     3    20    21   ar
     4    21    22   ar
     5    22    23   ar
     6    23    24   ar
     7    24    28    1
     8    28    29    1
     9    24    25   ar
    10    25    10    1
    11    10    11    1
    12    11    12    1
    13    12    13    1
    14    13    14   ar
    15    14    15   ar
    16    15     1    1
    17     1     2    2
    18     2     3    1
    19     3    30    1
    20    30    32    1
    21    32    33   ar
    22    33    34   ar
    23    34    35   ar
    24    35    38    1
    25    38    39    1
    26    39    40    1
    27    40    41    1
    28    41    44    1
    29    44    45    2
    30    44    46   am
    31    46    47    1
    32    47    48    1
    33    48    49    1
    34    49    50    1
    35    49    51    1
    36    51    52    1
    37    41    42    1
    38    42    43    1
    39    35    36   ar
    40    36    37   ar
    41    37    53    1
    42    53    54    1
    43     3     4    2
    44     4     5    1
    45     5     6    2
    46     6     7    1
    47     7     8    2
    48     8     9    1
    49    15    16   ar
    50    16    17   ar
    51    17    18    1
    52    18    19    2
    53    25    20   ar
    54    18    10   am
    55    17    13   ar
    56     9     1    1
    57    37    32   ar
    58     9     5    1
    59    43    38    1
    60    52    46    1
    61    30    31    1
