@<TRIPOS>MOLECULE
*****
 35 38 0 0 0
SMALL
GASTEIGER

@<TRIPOS>ATOM
      1 C          65.5944   92.7407   11.5210 C.ar    1  UNL1        0.1059
      2 C          65.7858   92.7875   13.0080 C.ar    1  UNL1        0.0215
      3 C          64.8967   91.9776   13.9045 C.ar    1  UNL1        0.0384
      4 C          63.8163   91.1208   13.3138 C.ar    1  UNL1        0.1432
      5 C          63.6250   91.0740   11.8268 C.ar    1  UNL1        0.0888
      6 C          64.5140   91.8840   10.9304 C.ar    1  UNL1        0.0259
      7 C          62.5446   90.2173   11.2363 C.2     1  UNL1        0.2525
      8 O          61.4754   90.8380   10.3868 O.2     1  UNL1       -0.2698
      9 N          62.5334   88.7398   11.4952 N.am    1  UNL1       -0.2660
     10 C          63.5308   87.9817   12.3200 C.3     1  UNL1        0.1236
     11 C          63.1366   86.5344   12.3093 C.ar    1  UNL1        0.0338
     12 C          63.5094   85.1714   12.8124 C.ar    1  UNL1        0.0990
     13 N          62.4988   84.1927   12.2920 N.ar    1  UNL1       -0.2287
     14 N          61.5013   84.9509   11.4672 N.ar    1  UNL1       -0.1680
     15 C          61.8955   86.3982   11.4779 C.ar    1  UNL1        0.0981
     16 C          61.5227   87.7612   10.9748 C.3     1  UNL1        0.1414
     17 C          62.4876   82.7153   12.5509 C.ar    1  UNL1        0.0828
     18 C          62.0574   82.1916   13.8890 C.ar    1  UNL1        0.0191
     19 C          62.0461   80.7141   14.1480 C.ar    1  UNL1        0.0015
     20 C          62.4651   79.7604   13.0687 C.ar    1  UNL1        0.0001
     21 C          62.8953   80.2841   11.7305 C.ar    1  UNL1        0.0015
     22 C          62.9066   81.7615   11.4716 C.ar    1  UNL1        0.0191
     23 S          66.4834   93.5507   10.6245 S.O2    1  UNL1        0.0070
     24 O          67.5770   92.5381   10.7941 O.2     1  UNL1       -0.1687
     25 O          65.3898   94.5633   10.4549 O.2     1  UNL1       -0.1687
     26 C          67.2437   95.8547    9.6953 C.3     1  UNL1        0.0257
     27 C          67.3724   94.3606    9.7281 C.3     1  UNL1        0.1339
     28 C          68.3902   93.6764    8.8642 C.3     1  UNL1        0.0257
     29 O          62.9273   90.3109   14.2103 O.3     1  UNL1       -0.4702
     30 C          63.4125   89.8895   15.5656 C.3     1  UNL1        0.2599
     31 C          63.6938   90.9226   16.6162 C.3     1  UNL1        0.0566
     32 C          63.6164   88.4351   15.8706 C.3     1  UNL1        0.4340
     33 F          63.8203   86.9805   16.1756 F       1  UNL1       -0.1664
     34 F          64.7590   88.3916   14.8997 F       1  UNL1       -0.1664
     35 F          62.4738   88.4784   16.8414 F       1  UNL1       -0.1664
@<TRIPOS>BOND
     1    26    27    1
     2    27    28    1
     3    27    23    1
     4    23    24    2
     5    23    25    2
     6    23     1    1
     7     1     2   ar
     8     2     3   ar
     9     3     4   ar
    10     4    29    1
    11    29    30    1
    12    30    31    1
    13    30    32    1
    14    32    33    1
    15    32    34    1
    16    32    35    1
    17     4     5   ar
    18     5     7    1
    19     7     8    2
    20     7     9   am
    21     9    10    1
    22    10    11    1
    23    11    12   ar
    24    12    13   ar
    25    13    17    1
    26    17    18   ar
    27    18    19   ar
    28    19    20   ar
    29    20    21   ar
    30    21    22   ar
    31    13    14   ar
    32    14    15   ar
    33    15    16    1
    34     5     6   ar
    35     6     1   ar
    36    16     9    1
    37    15    11   ar
    38    22    17   ar
@<TRIPOS>MOLECULE
*****
 35 38 0 0 0
SMALL
GASTEIGER

@<TRIPOS>ATOM
      1 C          63.9605   87.7114   13.9326 C.ar    1  UNL1        0.1059
      2 C          64.6265   86.7668   14.8886 C.ar    1  UNL1        0.0215
      3 C          64.5508   85.2869   14.6558 C.ar    1  UNL1        0.0384
      4 C          63.8089   84.7517   13.4670 C.ar    1  UNL1        0.1432
      5 C          63.1428   85.6963   12.5110 C.ar    1  UNL1        0.0888
      6 C          63.2186   87.1762   12.7438 C.ar    1  UNL1        0.0259
      7 C          62.4010   85.1611   11.3222 C.2     1  UNL1        0.2525
      8 O          62.2923   83.6801   11.1106 O.2     1  UNL1       -0.2698
      9 N          61.7679   86.1068   10.3451 N.am    1  UNL1       -0.2660
     10 C          61.7931   87.6045   10.4249 C.3     1  UNL1        0.1236
     11 C          61.0392   88.1441    9.2457 C.ar    1  UNL1        0.0338
     12 C          60.5888   89.4033    8.5662 C.ar    1  UNL1        0.0990
     13 N          59.8194   89.0174    7.3377 N.ar    1  UNL1       -0.2287
     14 N          59.7943   87.5197    7.2580 N.ar    1  UNL1       -0.1680
     15 C          60.5481   86.9800    8.4372 C.ar    1  UNL1        0.0981
     16 C          60.9985   85.7209    9.1166 C.3     1  UNL1        0.1414
     17 C          59.1863   89.9631    6.3607 C.ar    1  UNL1        0.0828
     18 C          57.6934   90.0111    6.2231 C.ar    1  UNL1        0.0191
     19 C          57.0602   90.9568    5.2459 C.ar    1  UNL1        0.0015
     20 C          57.9200   91.8545    4.4064 C.ar    1  UNL1        0.0001
     21 C          59.4130   91.8065    4.5439 C.ar    1  UNL1        0.0015
     22 C          60.0461   90.8608    5.5210 C.ar    1  UNL1        0.0191
     23 S          64.0362   89.1913   14.1653 S.O2    1  UNL1        0.0070
     24 O          63.8915   89.4305   12.6916 O.2     1  UNL1       -0.1687
     25 O          64.1809   88.9521   15.6390 O.2     1  UNL1       -0.1687
     26 C          64.3073   91.6036   13.2394 C.3     1  UNL1        0.0257
     27 C          64.1120   90.6712   14.3980 C.3     1  UNL1        0.1339
     28 C          63.9924   91.2187   15.7895 C.3     1  UNL1        0.0257
     29 O          63.7331   83.2718   13.2342 O.3     1  UNL1       -0.4702
     30 C          62.7694   82.4367   14.0241 C.3     1  UNL1        0.2599
     31 C          62.0505   83.0305   15.1991 C.3     1  UNL1        0.0566
     32 C          62.5245   81.0078   13.6390 C.3     1  UNL1        0.4340
     33 F          62.2795   79.5789   13.2540 F       1  UNL1       -0.1664
     34 F          63.9350   80.9004   13.1402 F       1  UNL1       -0.1664
     35 F          61.1140   81.1151   14.1379 F       1  UNL1       -0.1664
@<TRIPOS>BOND
     1    26    27    1
     2    27    28    1
     3    27    23    1
     4    23    24    2
     5    23    25    2
     6    23     1    1
     7     1     2   ar
     8     2     3   ar
     9     3     4   ar
    10     4    29    1
    11    29    30    1
    12    30    31    1
    13    30    32    1
    14    32    33    1
    15    32    34    1
    16    32    35    1
    17     4     5   ar
    18     5     7    1
    19     7     8    2
    20     7     9   am
    21     9    10    1
    22    10    11    1
    23    11    12   ar
    24    12    13   ar
    25    13    17    1
    26    17    18   ar
    27    18    19   ar
    28    19    20   ar
    29    20    21   ar
    30    21    22   ar
    31    13    14   ar
    32    14    15   ar
    33    15    16    1
    34     5     6   ar
    35     6     1   ar
    36    16     9    1
    37    15    11   ar
    38    22    17   ar
@<TRIPOS>MOLECULE
*****
 35 38 0 0 0
SMALL
GASTEIGER

@<TRIPOS>ATOM
      1 C          59.4465   89.1816    7.1403 C.ar    1  UNL1        0.1059
      2 C          59.8135   87.8029    6.6772 C.ar    1  UNL1        0.0215
      3 C          60.2163   86.7587    7.6759 C.ar    1  UNL1        0.0384
      4 C          60.2521   87.0933    9.1377 C.ar    1  UNL1        0.1432
      5 C          59.8851   88.4720    9.6008 C.ar    1  UNL1        0.0888
      6 C          59.4823   89.5162    8.6021 C.ar    1  UNL1        0.0259
      7 C          59.9209   88.8064   11.0626 C.2     1  UNL1        0.2525
      8 O          58.7224   88.5366   11.9233 O.2     1  UNL1       -0.2698
      9 N          61.1552   89.4107   11.6637 N.am    1  UNL1       -0.2660
     10 C          62.4238   89.7357   10.9322 C.3     1  UNL1        0.1236
     11 C          63.3902   90.3220   11.9183 C.ar    1  UNL1        0.0338
     12 C          64.7715   90.8851   12.0757 C.ar    1  UNL1        0.0990
     13 N          64.9539   91.2705   13.5138 N.ar    1  UNL1       -0.2287
     14 N          63.6853   90.9455   14.2453 N.ar    1  UNL1       -0.1680
     15 C          62.7189   90.3593   13.2592 C.ar    1  UNL1        0.0981
     16 C          61.3376   89.7961   13.1018 C.3     1  UNL1        0.1414
     17 C          66.1882   91.8748   14.1149 C.ar    1  UNL1        0.0828
     18 C          66.1233   92.5268   15.4642 C.ar    1  UNL1        0.0191
     19 C          67.3576   93.1312   16.0654 C.ar    1  UNL1        0.0015
     20 C          68.6568   93.0834   15.3172 C.ar    1  UNL1        0.0001
     21 C          68.7217   92.4313   13.9679 C.ar    1  UNL1        0.0015
     22 C          67.4875   91.8271   13.3668 C.ar    1  UNL1        0.0191
     23 S          59.0437   90.2258    6.1416 S.O2    1  UNL1        0.0070
     24 O          60.4886   90.5127    5.8588 O.2     1  UNL1       -0.1687
     25 O          57.5988   89.9390    6.4245 O.2     1  UNL1       -0.1687
     26 C          57.1885   91.5194    4.8630 C.3     1  UNL1        0.0257
     27 C          58.6409   91.2701    5.1430 C.3     1  UNL1        0.1339
     28 C          59.6905   92.0650    4.4243 C.3     1  UNL1        0.0257
     29 O          60.6549   86.0490   10.1364 O.3     1  UNL1       -0.4702
     30 C          62.0847   85.6033   10.2202 C.3     1  UNL1        0.2599
     31 C          62.9217   85.5308    8.9775 C.3     1  UNL1        0.0566
     32 C          62.6775   85.2301   11.5465 C.3     1  UNL1        0.4340
     33 F          63.2703   84.8568   12.8729 F       1  UNL1       -0.1664
     34 F          62.8606   86.6826   11.8734 F       1  UNL1       -0.1664
     35 F          62.4944   83.7777   11.2197 F       1  UNL1       -0.1664
@<TRIPOS>BOND
     1    26    27    1
     2    27    28    1
     3    27    23    1
     4    23    24    2
     5    23    25    2
     6    23     1    1
     7     1     2   ar
     8     2     3   ar
     9     3     4   ar
    10     4    29    1
    11    29    30    1
    12    30    31    1
    13    30    32    1
    14    32    33    1
    15    32    34    1
    16    32    35    1
    17     4     5   ar
    18     5     7    1
    19     7     8    2
    20     7     9   am
    21     9    10    1
    22    10    11    1
    23    11    12   ar
    24    12    13   ar
    25    13    17    1
    26    17    18   ar
    27    18    19   ar
    28    19    20   ar
    29    20    21   ar
    30    21    22   ar
    31    13    14   ar
    32    14    15   ar
    33    15    16    1
    34     5     6   ar
    35     6     1   ar
    36    16     9    1
    37    15    11   ar
    38    22    17   ar
