@<TRIPOS>MOLECULE
*****
 30 33 0 0 0
SMALL
GASTEIGER

@<TRIPOS>ATOM
      1 C          62.4345   85.2512   12.4096 C.ar    1  UNL1        0.1679
      2 C          63.2881   86.3380   12.9930 C.ar    1  UNL1        0.0733
      3 C          63.2580   87.7153   12.3996 C.ar    1  UNL1        0.1390
      4 N          62.3742   88.0059   11.2230 N.ar    1  UNL1       -0.2096
      5 C          61.5207   86.9191   10.6396 C.ar    1  UNL1        0.1890
      6 N          61.5508   85.5418   11.2329 N.ar    1  UNL1       -0.2056
      7 C          62.5705   79.9953   12.8974 C.3     1  UNL1        0.0540
      8 C          62.5271   81.4580   13.2271 C.ar    1  UNL1        0.0805
      9 C          62.4949   82.0507   14.6047 C.ar    1  UNL1        0.0312
     10 C          62.4563   83.5438   14.4661 C.ar    1  UNL1        0.0637
     11 C          62.4163   84.5331   15.5929 C.3     1  UNL1        0.0522
     12 N          62.4647   83.8738   13.0029 N.ar    1  UNL1       -0.2164
     13 N          62.5085   82.5848   12.2372 N.ar    1  UNL1       -0.1684
     14 C          60.6370   87.2097    9.4629 C.ar    1  UNL1        0.1466
     15 N          60.0310   86.1919    8.5427 N.ar    1  UNL1       -0.2337
     16 C          59.2235   86.9222    7.5109 C.ar    1  UNL1        0.1066
     17 C          59.3305   88.3915    7.7933 C.ar    1  UNL1        0.0576
     18 S          60.2040   88.5691    8.9997 S.2     1  UNL1       -0.0629
     19 N          64.1115   88.8021   12.9830 N.am    1  UNL1       -0.2681
     20 C          63.4994   89.8359   13.8811 C.2     1  UNL1        0.2435
     21 O          62.0337   89.7829   14.1958 O.2     1  UNL1       -0.2732
     22 H          65.0735   88.8369   12.7765 H       1  UNL1        0.1563
     23 C          64.3529   90.9227   14.4645 C.3     1  UNL1        0.1588
     24 N          64.9635   91.9593   13.5685 N.3     1  UNL1       -0.2626
     25 C          64.6120   91.9916   12.1107 C.3     1  UNL1        0.0900
     26 C          65.2226   93.0282   11.2148 C.3     1  UNL1        0.0897
     27 N          66.1848   94.0324   11.7767 N.3     1  UNL1       -0.2691
     28 C          66.7954   95.0689   10.8807 C.3     1  UNL1        0.0897
     29 C          66.5364   94.0001   13.2346 C.3     1  UNL1        0.0897
     30 C          65.9258   92.9635   14.1305 C.3     1  UNL1        0.0900
@<TRIPOS>BOND
     1     7     8    1
     2     8     9   ar
     3     9    10   ar
     4    10    11    1
     5    10    12   ar
     6    12     1    1
     7     1     2   ar
     8     2     3   ar
     9     3    19    1
    10    19    20   am
    11    20    21    2
    12    20    23    1
    13    23    24    1
    14    24    25    1
    15    25    26    1
    16    26    27    1
    17    27    28    1
    18    27    29    1
    19    29    30    1
    20     3     4   ar
    21     4     5   ar
    22     5    14    1
    23    14    15   ar
    24    15    16   ar
    25    16    17   ar
    26    17    18   ar
    27     5     6   ar
    28    12    13   ar
    29    13     8   ar
    30     6     1   ar
    31    30    24    1
    32    18    14   ar
    33    19    22    1
@<TRIPOS>MOLECULE
*****
 30 33 0 0 0
SMALL
GASTEIGER

@<TRIPOS>ATOM
      1 C          62.2009   86.2168   10.0227 C.ar    1  UNL1        0.1679
      2 C          62.3502   87.6665   10.3776 C.ar    1  UNL1        0.0733
      3 C          62.8137   88.0589   11.7491 C.ar    1  UNL1        0.1390
      4 N          63.1279   87.0017   12.7657 N.ar    1  UNL1       -0.2096
      5 C          62.9786   85.5520   12.4108 C.ar    1  UNL1        0.1890
      6 N          62.5151   85.1595   11.0393 N.ar    1  UNL1       -0.2056
      7 C          62.0511   84.1053    5.1853 C.3     1  UNL1        0.0540
      8 C          61.6685   84.8537    6.4277 C.ar    1  UNL1        0.0805
      9 C          60.3794   85.5868    6.6535 C.ar    1  UNL1        0.0312
     10 C          60.4220   86.1866    8.0277 C.ar    1  UNL1        0.0637
     11 C          59.3393   87.0050    8.6664 C.3     1  UNL1        0.0522
     12 N          61.7373   85.8242    8.6511 N.ar    1  UNL1       -0.2164
     13 N          62.5077   85.0005    7.6622 N.ar    1  UNL1       -0.1684
     14 C          63.2928   84.4947   13.4274 C.ar    1  UNL1        0.1466
     15 N          62.7511   83.0961   13.4412 N.ar    1  UNL1       -0.2337
     16 C          63.3274   82.3874   14.6310 C.ar    1  UNL1        0.1066
     17 C          64.2253   83.3482   15.3526 C.ar    1  UNL1        0.0576
     18 S          64.2039   84.6505   14.6088 S.2     1  UNL1       -0.0629
     19 N          62.9630   89.5087   12.1040 N.am    1  UNL1       -0.2681
     20 C          63.7504   89.9066   13.3172 C.2     1  UNL1        0.2435
     21 O          64.3885   88.8547   14.1754 O.2     1  UNL1       -0.2732
     22 H          62.5443   90.1991   11.5408 H       1  UNL1        0.1563
     23 C          63.8998   91.3563   13.6722 C.3     1  UNL1        0.1588
     24 N          65.2064   91.8679   14.2023 N.3     1  UNL1       -0.2626
     25 C          66.3711   92.0528   13.2754 C.3     1  UNL1        0.0900
     26 C          67.6777   92.5644   13.8055 C.3     1  UNL1        0.0897
     27 N          67.8196   92.8911   15.2626 N.3     1  UNL1       -0.2691
     28 C          69.1262   93.4027   15.7927 C.3     1  UNL1        0.0897
     29 C          66.6548   92.7062   16.1896 C.3     1  UNL1        0.0897
     30 C          65.3482   92.1946   15.6594 C.3     1  UNL1        0.0900
@<TRIPOS>BOND
     1     7     8    1
     2     8     9   ar
     3     9    10   ar
     4    10    11    1
     5    10    12   ar
     6    12     1    1
     7     1     2   ar
     8     2     3   ar
     9     3    19    1
    10    19    20   am
    11    20    21    2
    12    20    23    1
    13    23    24    1
    14    24    25    1
    15    25    26    1
    16    26    27    1
    17    27    28    1
    18    27    29    1
    19    29    30    1
    20     3     4   ar
    21     4     5   ar
    22     5    14    1
    23    14    15   ar
    24    15    16   ar
    25    16    17   ar
    26    17    18   ar
    27     5     6   ar
    28    12    13   ar
    29    13     8   ar
    30     6     1   ar
    31    30    24    1
    32    18    14   ar
    33    19    22    1
@<TRIPOS>MOLECULE
*****
 30 33 0 0 0
SMALL
GASTEIGER

@<TRIPOS>ATOM
      1 C          62.3806   88.9028   10.9592 C.ar    1  UNL1        0.1679
      2 C          63.0000   90.2686   10.9902 C.ar    1  UNL1        0.0733
      3 C          63.8616   90.6751   12.1487 C.ar    1  UNL1        0.1390
      4 N          64.1039   89.7159   13.2762 N.ar    1  UNL1       -0.2096
      5 C          63.4846   88.3502   13.2451 C.ar    1  UNL1        0.1890
      6 N          62.6229   87.9436   12.0866 N.ar    1  UNL1       -0.2056
      7 C          58.9766   89.0807    6.9265 C.3     1  UNL1        0.0540
      8 C          59.9543   88.5779    7.9470 C.ar    1  UNL1        0.0805
      9 C          60.4316   87.1629    8.0886 C.ar    1  UNL1        0.0312
     10 C          61.3986   87.1124    9.2342 C.ar    1  UNL1        0.0637
     11 C          62.1188   85.8924    9.7269 C.3     1  UNL1        0.0522
     12 N          61.5189   88.4962    9.8006 N.ar    1  UNL1       -0.2164
     13 N          60.6263   89.4019    9.0050 N.ar    1  UNL1       -0.1684
     14 C          63.7269   87.3909   14.3726 C.ar    1  UNL1        0.1466
     15 N          63.4436   87.6459   15.8234 N.ar    1  UNL1       -0.2337
     16 C          63.8366   86.4209   16.5947 C.ar    1  UNL1        0.1066
     17 C          64.3628   85.4088   15.6206 C.ar    1  UNL1        0.0576
     18 S          64.2950   86.0084   14.2473 S.2     1  UNL1       -0.0629
     19 N          64.4811   92.0410   12.1798 N.am    1  UNL1       -0.2681
     20 C          65.6875   92.2981   13.0332 C.2     1  UNL1        0.2435
     21 O          66.2746   91.1893   13.8555 O.2     1  UNL1       -0.2732
     22 H          64.0957   92.7687   11.6401 H       1  UNL1        0.1563
     23 C          66.3070   93.6638   13.0643 C.3     1  UNL1        0.1588
     24 N          66.5363   94.4127   11.7850 N.3     1  UNL1       -0.2626
     25 C          66.1979   95.8714   11.6988 C.3     1  UNL1        0.0900
     26 C          66.4273   96.6203   10.4195 C.3     1  UNL1        0.0897
     27 N          66.9951   95.9104    9.2264 N.3     1  UNL1       -0.2691
     28 C          67.2244   96.6592    7.9471 C.3     1  UNL1        0.0897
     29 C          67.3336   94.4515    9.3126 C.3     1  UNL1        0.0897
     30 C          67.1042   93.7027   10.5919 C.3     1  UNL1        0.0900
@<TRIPOS>BOND
     1     7     8    1
     2     8     9   ar
     3     9    10   ar
     4    10    11    1
     5    10    12   ar
     6    12     1    1
     7     1     2   ar
     8     2     3   ar
     9     3    19    1
    10    19    20   am
    11    20    21    2
    12    20    23    1
    13    23    24    1
    14    24    25    1
    15    25    26    1
    16    26    27    1
    17    27    28    1
    18    27    29    1
    19    29    30    1
    20     3     4   ar
    21     4     5   ar
    22     5    14    1
    23    14    15   ar
    24    15    16   ar
    25    16    17   ar
    26    17    18   ar
    27     5     6   ar
    28    12    13   ar
    29    13     8   ar
    30     6     1   ar
    31    30    24    1
    32    18    14   ar
    33    19    22    1
@<TRIPOS>MOLECULE
*****
 30 33 0 0 0
SMALL
GASTEIGER

@<TRIPOS>ATOM
      1 C          62.9574   86.1714   12.5630 C.ar    1  UNL1        0.1679
      2 C          63.5285   87.4521   13.0953 C.ar    1  UNL1        0.0733
      3 C          63.1824   88.7567   12.4410 C.ar    1  UNL1        0.1390
      4 N          62.2651   88.7805   11.2544 N.ar    1  UNL1       -0.2096
      5 C          61.6940   87.4998   10.7221 C.ar    1  UNL1        0.1890
      6 N          62.0401   86.1952   11.3764 N.ar    1  UNL1       -0.2056
      7 C          63.5983   81.0023   13.4298 C.3     1  UNL1        0.0540
      8 C          63.5981   82.4908   13.6157 C.ar    1  UNL1        0.0805
      9 C          64.0743   83.2274   14.8326 C.ar    1  UNL1        0.0312
     10 C          63.8923   84.6957   14.5863 C.ar    1  UNL1        0.0637
     11 C          64.2382   85.7994   15.5414 C.3     1  UNL1        0.0522
     12 N          63.3036   84.8667   13.2173 N.ar    1  UNL1       -0.2164
     13 N          63.1218   83.5039   12.6174 N.ar    1  UNL1       -0.1684
     14 C          60.7767   87.5236    9.5354 C.ar    1  UNL1        0.1466
     15 N          60.2372   86.3243    8.8138 N.ar    1  UNL1       -0.2337
     16 C          59.3650   86.8104    7.6945 C.ar    1  UNL1        0.1066
     17 C          59.3654   88.3101    7.7243 C.ar    1  UNL1        0.0576
     18 S          60.2379   88.7509    8.8621 S.2     1  UNL1       -0.0629
     19 N          63.7535   90.0376   12.9733 N.am    1  UNL1       -0.2681
     20 C          63.4385   90.4746   14.3732 C.2     1  UNL1        0.2435
     21 O          62.5524   89.6306   15.2409 O.2     1  UNL1       -0.2732
     22 H          64.3350   90.5914   12.4038 H       1  UNL1        0.1563
     23 C          64.0096   91.7553   14.9056 C.3     1  UNL1        0.1588
     24 N          65.4875   92.0026   14.8385 N.3     1  UNL1       -0.2626
     25 C          66.2431   91.6945   13.5799 C.3     1  UNL1        0.0900
     26 C          67.7210   91.9418   13.5127 C.3     1  UNL1        0.0897
     27 N          68.4434   92.4972   14.7042 N.3     1  UNL1       -0.2691
     28 C          69.9214   92.7445   14.6371 C.3     1  UNL1        0.0897
     29 C          67.6878   92.8054   15.9629 C.3     1  UNL1        0.0897
     30 C          66.2099   92.5581   16.0300 C.3     1  UNL1        0.0900
@<TRIPOS>BOND
     1     7     8    1
     2     8     9   ar
     3     9    10   ar
     4    10    11    1
     5    10    12   ar
     6    12     1    1
     7     1     2   ar
     8     2     3   ar
     9     3    19    1
    10    19    20   am
    11    20    21    2
    12    20    23    1
    13    23    24    1
    14    24    25    1
    15    25    26    1
    16    26    27    1
    17    27    28    1
    18    27    29    1
    19    29    30    1
    20     3     4   ar
    21     4     5   ar
    22     5    14    1
    23    14    15   ar
    24    15    16   ar
    25    16    17   ar
    26    17    18   ar
    27     5     6   ar
    28    12    13   ar
    29    13     8   ar
    30     6     1   ar
    31    30    24    1
    32    18    14   ar
    33    19    22    1
@<TRIPOS>MOLECULE
*****
 30 33 0 0 0
SMALL
GASTEIGER

@<TRIPOS>ATOM
      1 C          62.2192   86.0488   10.0914 C.ar    1  UNL1        0.1679
      2 C          62.3967   87.4756   10.5188 C.ar    1  UNL1        0.0733
      3 C          62.8579   87.7896   11.9111 C.ar    1  UNL1        0.1390
      4 N          63.1415   86.6768   12.8761 N.ar    1  UNL1       -0.2096
      5 C          62.9640   85.2500   12.4488 C.ar    1  UNL1        0.1890
      6 N          62.5028   84.9360   11.0565 N.ar    1  UNL1       -0.2056
      7 C          62.0551   84.1695    5.1596 C.3     1  UNL1        0.0540
      8 C          61.6826   84.8709    6.4322 C.ar    1  UNL1        0.0805
      9 C          60.4140   85.6320    6.6806 C.ar    1  UNL1        0.0312
     10 C          60.4607   86.1658    8.0817 C.ar    1  UNL1        0.0637
     11 C          59.3968   86.9867    8.7482 C.3     1  UNL1        0.0522
     12 N          61.7580   85.7347    8.6990 N.ar    1  UNL1       -0.2164
     13 N          62.5131   84.9344    7.6796 N.ar    1  UNL1       -0.1684
     14 C          63.2476   84.1372   13.4138 C.ar    1  UNL1        0.1466
     15 N          62.8839   82.6940   13.2270 N.ar    1  UNL1       -0.2337
     16 C          63.3562   81.9370   14.4328 C.ar    1  UNL1        0.1066
     17 C          64.0118   82.9124   15.3649 C.ar    1  UNL1        0.0576
     18 S          63.9447   84.2721   14.7351 S.2     1  UNL1       -0.0629
     19 N          63.0355   89.2164   12.3386 N.am    1  UNL1       -0.2681
     20 C          63.8674   89.5402   13.5440 C.2     1  UNL1        0.2435
     21 O          64.5217   88.4372   14.3220 O.2     1  UNL1       -0.2732
     22 H          62.6060   89.9403   11.8279 H       1  UNL1        0.1563
     23 C          64.0449   90.9670   13.9714 C.3     1  UNL1        0.1588
     24 N          64.7718   91.9315   13.0818 N.3     1  UNL1       -0.2626
     25 C          64.4972   91.9448   11.6073 C.3     1  UNL1        0.0900
     26 C          65.2241   92.9093   10.7177 C.3     1  UNL1        0.0897
     27 N          66.2255   93.8606   11.3026 N.3     1  UNL1       -0.2691
     28 C          66.9523   94.8251   10.4130 C.3     1  UNL1        0.0897
     29 C          66.5000   93.8474   12.7773 C.3     1  UNL1        0.0897
     30 C          65.7732   92.8829   13.6669 C.3     1  UNL1        0.0900
@<TRIPOS>BOND
     1     7     8    1
     2     8     9   ar
     3     9    10   ar
     4    10    11    1
     5    10    12   ar
     6    12     1    1
     7     1     2   ar
     8     2     3   ar
     9     3    19    1
    10    19    20   am
    11    20    21    2
    12    20    23    1
    13    23    24    1
    14    24    25    1
    15    25    26    1
    16    26    27    1
    17    27    28    1
    18    27    29    1
    19    29    30    1
    20     3     4   ar
    21     4     5   ar
    22     5    14    1
    23    14    15   ar
    24    15    16   ar
    25    16    17   ar
    26    17    18   ar
    27     5     6   ar
    28    12    13   ar
    29    13     8   ar
    30     6     1   ar
    31    30    24    1
    32    18    14   ar
    33    19    22    1
@<TRIPOS>MOLECULE
*****
 30 33 0 0 0
SMALL
GASTEIGER

@<TRIPOS>ATOM
      1 C          62.0169   86.2578   10.8212 C.ar    1  UNL1        0.1679
      2 C          62.7081   87.3800   11.5374 C.ar    1  UNL1        0.0733
      3 C          63.4396   87.1136   12.8195 C.ar    1  UNL1        0.1390
      4 N          63.4799   85.7251   13.3855 N.ar    1  UNL1       -0.2096
      5 C          62.7887   84.6029   12.6693 C.ar    1  UNL1        0.1890
      6 N          62.0572   84.8693   11.3872 N.ar    1  UNL1       -0.2056
      7 C          58.6039   88.2162    7.3002 C.3     1  UNL1        0.0540
      8 C          59.7166   87.4243    7.9206 C.ar    1  UNL1        0.0805
      9 C          60.6029   86.4437    7.2112 C.ar    1  UNL1        0.0312
     10 C          61.5724   85.8875    8.2115 C.ar    1  UNL1        0.0637
     11 C          62.6413   84.8726    7.9331 C.3     1  UNL1        0.0522
     12 N          61.2854   86.5242    9.5390 N.ar    1  UNL1       -0.2164
     13 N          60.1385   87.4740    9.3592 N.ar    1  UNL1       -0.1684
     14 C          62.8289   83.2144   13.2353 C.ar    1  UNL1        0.1466
     15 N          61.9051   82.6606   14.2793 N.ar    1  UNL1       -0.2337
     16 C          62.3053   81.2398   14.5458 C.ar    1  UNL1        0.1066
     17 C          63.4765   80.9154   13.6666 C.ar    1  UNL1        0.0576
     18 S          63.8001   82.1357   12.8566 S.2     1  UNL1       -0.0629
     19 N          64.1309   88.2358   13.5358 N.am    1  UNL1       -0.2681
     20 C          63.4238   89.5426   13.7414 C.2     1  UNL1        0.2435
     21 O          62.0255   89.7273   13.2307 O.2     1  UNL1       -0.2732
     22 H          65.0486   88.1146   13.8709 H       1  UNL1        0.1563
     23 C          64.1150   90.6648   14.4576 C.3     1  UNL1        0.1588
     24 N          64.7907   91.7510   13.6743 N.3     1  UNL1       -0.2626
     25 C          64.5015   91.9116   12.2113 C.3     1  UNL1        0.0900
     26 C          65.1773   92.9979   11.4280 C.3     1  UNL1        0.0897
     27 N          66.1422   93.9234   12.1078 N.3     1  UNL1       -0.2691
     28 C          66.8180   95.0097   11.3246 C.3     1  UNL1        0.0897
     29 C          66.4315   93.7628   13.5709 C.3     1  UNL1        0.0897
     30 C          65.7557   92.6766   14.3542 C.3     1  UNL1        0.0900
@<TRIPOS>BOND
     1     7     8    1
     2     8     9   ar
     3     9    10   ar
     4    10    11    1
     5    10    12   ar
     6    12     1    1
     7     1     2   ar
     8     2     3   ar
     9     3    19    1
    10    19    20   am
    11    20    21    2
    12    20    23    1
    13    23    24    1
    14    24    25    1
    15    25    26    1
    16    26    27    1
    17    27    28    1
    18    27    29    1
    19    29    30    1
    20     3     4   ar
    21     4     5   ar
    22     5    14    1
    23    14    15   ar
    24    15    16   ar
    25    16    17   ar
    26    17    18   ar
    27     5     6   ar
    28    12    13   ar
    29    13     8   ar
    30     6     1   ar
    31    30    24    1
    32    18    14   ar
    33    19    22    1
@<TRIPOS>MOLECULE
*****
 30 33 0 0 0
SMALL
GASTEIGER

@<TRIPOS>ATOM
      1 C          63.1097   89.6509   11.8019 C.ar    1  UNL1        0.1679
      2 C          62.0627   90.0739   10.8147 C.ar    1  UNL1        0.0733
      3 C          61.1616   89.0492   10.1918 C.ar    1  UNL1        0.1390
      4 N          61.3076   87.6015   10.5563 N.ar    1  UNL1       -0.2096
      5 C          62.3546   87.1785   11.5435 C.ar    1  UNL1        0.1890
      6 N          63.2557   88.2032   12.1664 N.ar    1  UNL1       -0.2056
      7 C          66.2847   93.8212   12.4416 C.3     1  UNL1        0.0540
      8 C          65.4702   92.5925   12.7188 C.ar    1  UNL1        0.0805
      9 C          65.3249   91.9124   14.0479 C.ar    1  UNL1        0.0312
     10 C          64.4230   90.7277   13.8662 C.ar    1  UNL1        0.0637
     11 C          64.0063   89.7643   14.9377 C.3     1  UNL1        0.0522
     12 N          64.0109   90.6756   12.4248 N.ar    1  UNL1       -0.2164
     13 N          64.6581   91.8281   11.7157 N.ar    1  UNL1       -0.1684
     14 C          62.5006   85.7308   11.9080 C.ar    1  UNL1        0.1466
     15 N          62.4968   85.1667   13.2979 N.ar    1  UNL1       -0.2337
     16 C          62.6698   83.6802   13.1954 C.ar    1  UNL1        0.1066
     17 C          62.7805   83.3256   11.7421 C.ar    1  UNL1        0.0576
     18 S          62.6759   84.5929   10.9465 S.2     1  UNL1       -0.0629
     19 N          60.1145   89.4722    9.2045 N.am    1  UNL1       -0.2681
     20 C          59.7942   88.5964    8.0296 C.2     1  UNL1        0.2435
     21 O          60.5209   87.2976    7.8420 O.2     1  UNL1       -0.2732
     22 H          59.6376   90.3246    9.3276 H       1  UNL1        0.1563
     23 C          58.7471   89.0193    7.0423 C.3     1  UNL1        0.1588
     24 N          59.0565   90.0822    6.0300 N.3     1  UNL1       -0.2626
     25 C          60.4724   90.3098    5.5904 C.3     1  UNL1        0.0900
     26 C          60.7817   91.3727    4.5781 C.3     1  UNL1        0.0897
     27 N          59.6752   92.2079    4.0055 N.3     1  UNL1       -0.2691
     28 C          59.9845   93.2707    2.9933 C.3     1  UNL1        0.0897
     29 C          58.2592   91.9803    4.4452 C.3     1  UNL1        0.0897
     30 C          57.9498   90.9174    5.4575 C.3     1  UNL1        0.0900
@<TRIPOS>BOND
     1     7     8    1
     2     8     9   ar
     3     9    10   ar
     4    10    11    1
     5    10    12   ar
     6    12     1    1
     7     1     2   ar
     8     2     3   ar
     9     3    19    1
    10    19    20   am
    11    20    21    2
    12    20    23    1
    13    23    24    1
    14    24    25    1
    15    25    26    1
    16    26    27    1
    17    27    28    1
    18    27    29    1
    19    29    30    1
    20     3     4   ar
    21     4     5   ar
    22     5    14    1
    23    14    15   ar
    24    15    16   ar
    25    16    17   ar
    26    17    18   ar
    27     5     6   ar
    28    12    13   ar
    29    13     8   ar
    30     6     1   ar
    31    30    24    1
    32    18    14   ar
    33    19    22    1
@<TRIPOS>MOLECULE
*****
 30 33 0 0 0
SMALL
GASTEIGER

@<TRIPOS>ATOM
      1 C          62.3553   86.9656   11.5715 C.ar    1  UNL1        0.1679
      2 C          61.3028   87.4003   10.5952 C.ar    1  UNL1        0.0733
      3 C          61.1242   88.8567   10.2839 C.ar    1  UNL1        0.1390
      4 N          61.9981   89.8784   10.9489 N.ar    1  UNL1       -0.2096
      5 C          63.0507   89.4438   11.9252 C.ar    1  UNL1        0.1890
      6 N          63.2292   87.9874   12.2365 N.ar    1  UNL1       -0.2056
      7 C          62.5771   82.3773   14.1753 C.3     1  UNL1        0.0540
      8 C          62.6359   83.4002   13.0797 C.ar    1  UNL1        0.0805
      9 C          62.9817   83.1357   11.6442 C.ar    1  UNL1        0.0312
     10 C          62.9187   84.4392   10.9046 C.ar    1  UNL1        0.0637
     11 C          63.1924   84.6377    9.4432 C.3     1  UNL1        0.0522
     12 N          62.5339   85.5092   11.8829 N.ar    1  UNL1       -0.2164
     13 N          62.3591   84.8670   13.2272 N.ar    1  UNL1       -0.1684
     14 C          63.9246   90.4656   12.5902 C.ar    1  UNL1        0.1466
     15 N          64.3845   90.4375   14.0177 N.ar    1  UNL1       -0.2337
     16 C          65.2362   91.6494   14.2542 C.ar    1  UNL1        0.1066
     17 C          65.3027   92.4264   12.9729 C.ar    1  UNL1        0.0576
     18 S          64.4921   91.6948   11.9445 S.2     1  UNL1       -0.0629
     19 N          60.0716   89.2914    9.3075 N.am    1  UNL1       -0.2681
     20 C          59.8245   88.4890    8.0645 C.2     1  UNL1        0.2435
     21 O          60.6299   87.2520    7.7978 O.2     1  UNL1       -0.2732
     22 H          59.5430   90.1033    9.4826 H       1  UNL1        0.1563
     23 C          58.7720   88.9237    7.0881 C.3     1  UNL1        0.1588
     24 N          59.0751   89.9999    6.0882 N.3     1  UNL1       -0.2626
     25 C          57.9633   90.8330    5.5227 C.3     1  UNL1        0.0900
     26 C          58.2665   91.9092    4.5228 C.3     1  UNL1        0.0897
     27 N          59.6814   92.1523    4.0883 N.3     1  UNL1       -0.2691
     28 C          59.9846   93.2285    3.0883 C.3     1  UNL1        0.0897
     29 C          60.7933   91.3192    4.6538 C.3     1  UNL1        0.0897
     30 C          60.4902   90.2430    5.6537 C.3     1  UNL1        0.0900
@<TRIPOS>BOND
     1     7     8    1
     2     8     9   ar
     3     9    10   ar
     4    10    11    1
     5    10    12   ar
     6    12     1    1
     7     1     2   ar
     8     2     3   ar
     9     3    19    1
    10    19    20   am
    11    20    21    2
    12    20    23    1
    13    23    24    1
    14    24    25    1
    15    25    26    1
    16    26    27    1
    17    27    28    1
    18    27    29    1
    19    29    30    1
    20     3     4   ar
    21     4     5   ar
    22     5    14    1
    23    14    15   ar
    24    15    16   ar
    25    16    17   ar
    26    17    18   ar
    27     5     6   ar
    28    12    13   ar
    29    13     8   ar
    30     6     1   ar
    31    30    24    1
    32    18    14   ar
    33    19    22    1
@<TRIPOS>MOLECULE
*****
 30 33 0 0 0
SMALL
GASTEIGER

@<TRIPOS>ATOM
      1 C          62.8616   86.3297   12.5166 C.ar    1  UNL1        0.1679
      2 C          63.6034   87.5373   13.0078 C.ar    1  UNL1        0.0733
      3 C          63.4088   88.8628   12.3331 C.ar    1  UNL1        0.1390
      4 N          62.4724   88.9805   11.1672 N.ar    1  UNL1       -0.2096
      5 C          61.7306   87.7729   10.6760 C.ar    1  UNL1        0.1890
      6 N          61.9252   86.4474   11.3507 N.ar    1  UNL1       -0.2056
      7 C          62.8727   81.1377   13.4781 C.3     1  UNL1        0.0540
      8 C          63.0613   82.6177   13.6333 C.ar    1  UNL1        0.0805
      9 C          63.6501   83.3112   14.8260 C.ar    1  UNL1        0.0312
     10 C          63.6470   84.7861   14.5528 C.ar    1  UNL1        0.0637
     11 C          64.1468   85.8553   15.4785 C.3     1  UNL1        0.0522
     12 N          63.0562   85.0041   13.1913 N.ar    1  UNL1       -0.2164
     13 N          62.6943   83.6640   12.6231 N.ar    1  UNL1       -0.1684
     14 C          60.7942   87.8907    9.5101 C.ar    1  UNL1        0.1466
     15 N          60.4200   89.1604    8.8046 N.ar    1  UNL1       -0.2337
     16 C          59.4621   88.8139    7.7035 C.ar    1  UNL1        0.1066
     17 C          59.2444   87.3300    7.7284 C.ar    1  UNL1        0.0576
     18 S          60.0677   86.7594    8.8450 S.2     1  UNL1       -0.0629
     19 N          64.1506   90.0705   12.8242 N.am    1  UNL1       -0.2681
     20 C          64.3480   91.2493   11.9179 C.2     1  UNL1        0.2435
     21 O          63.8036   91.2204   10.5204 O.2     1  UNL1       -0.2732
     22 H          64.5078   90.0895   13.7414 H       1  UNL1        0.1563
     23 C          65.0897   92.4570   12.4090 C.3     1  UNL1        0.1588
     24 N          65.7732   93.3664   11.4312 N.3     1  UNL1       -0.2626
     25 C          66.6698   92.7931   10.3742 C.3     1  UNL1        0.0900
     26 C          67.3533   93.7024    9.3965 C.3     1  UNL1        0.0897
     27 N          67.1401   95.1850    9.4758 N.3     1  UNL1       -0.2691
     28 C          67.8236   96.0944    8.4980 C.3     1  UNL1        0.0897
     29 C          66.2434   95.7584   10.5328 C.3     1  UNL1        0.0897
     30 C          65.5599   94.8491   11.5105 C.3     1  UNL1        0.0900
@<TRIPOS>BOND
     1     7     8    1
     2     8     9   ar
     3     9    10   ar
     4    10    11    1
     5    10    12   ar
     6    12     1    1
     7     1     2   ar
     8     2     3   ar
     9     3    19    1
    10    19    20   am
    11    20    21    2
    12    20    23    1
    13    23    24    1
    14    24    25    1
    15    25    26    1
    16    26    27    1
    17    27    28    1
    18    27    29    1
    19    29    30    1
    20     3     4   ar
    21     4     5   ar
    22     5    14    1
    23    14    15   ar
    24    15    16   ar
    25    16    17   ar
    26    17    18   ar
    27     5     6   ar
    28    12    13   ar
    29    13     8   ar
    30     6     1   ar
    31    30    24    1
    32    18    14   ar
    33    19    22    1
