@<TRIPOS>MOLECULE
*****
 31 34 0 0 0
SMALL
GASTEIGER

@<TRIPOS>ATOM
      1 C          62.6569   85.0037    9.7907 C.ar    1  UNL1        0.0284
      2 C          61.9054   85.5457   10.9703 C.ar    1  UNL1        0.0027
      3 C          60.9462   86.6847   10.7896 C.ar    1  UNL1        0.0339
      4 C          60.7383   87.2816    9.4293 C.ar    1  UNL1        0.1311
      5 N          61.4898   86.7396    8.2497 N.ar    1  UNL1       -0.2035
      6 C          62.4491   85.6006    8.4303 C.ar    1  UNL1        0.2196
      7 F          63.2005   85.0587    7.2506 F       1  UNL1       -0.1835
      8 N          59.7790   88.4206    9.2487 N.pl3   1  UNL1       -0.3144
      9 H          58.8728   88.2508    8.9036 H       1  UNL1        0.1485
     10 C          60.2006   89.8181    9.5939 C.3     1  UNL1        0.1169
     11 C          61.3072   90.0455   10.5806 C.ar    1  UNL1        0.0166
     12 C          62.6008   90.6561   10.1293 C.ar    1  UNL1        0.0004
     13 C          63.7075   90.8835   11.1160 C.ar    1  UNL1        0.0228
     14 C          63.5205   90.5003   12.5542 C.ar    1  UNL1        0.1526
     15 N          62.2269   89.8897   13.0055 N.ar    1  UNL1       -0.2401
     16 C          61.1203   89.6623   12.0188 C.ar    1  UNL1        0.0961
     17 C          64.6272   90.7277   13.5409 C.3     1  UNL1        0.4348
     18 F          65.7338   90.9552   14.5276 F       1  UNL1       -0.1644
     19 F          64.7596   92.1444   13.0659 F       1  UNL1       -0.1644
     20 F          64.4947   89.3110   14.0158 F       1  UNL1       -0.1644
     21 C          63.6161   83.8648    9.9713 C.3     1  UNL1        0.0603
     22 C          64.5018   86.1366   15.3422 C.3     1  UNL1        0.0307
     23 C          64.1635   84.8162   14.7159 C.2     1  UNL1        0.0074
     24 C          63.9554   83.6078   15.5798 C.2     1  UNL1        0.2278
     25 N          63.6171   82.2874   14.9535 N.2     1  UNL1       -0.0314
     26 C          63.4868   82.1755   13.4634 C.2     1  UNL1        0.3716
     27 N          63.1652   81.0157   12.5683 N.2     1  UNL1       -0.0311
     28 C          63.1745   81.5073   11.1512 C.2     1  UNL1        0.2319
     29 C          63.5018   82.9710   11.1705 C.2     1  UNL1        0.0328
     30 C          63.6949   83.3840   12.5996 C.2     1  UNL1        0.0704
     31 C          64.0332   84.7043   13.2258 C.3     1  UNL1        0.0598
@<TRIPOS>BOND
     1    22    23    1
     2    23    24    2
     3    24    25    1
     4    25    26    2
     5    26    27    1
     6    27    28    2
     7    28    29    1
     8    29    21    1
     9    21     1    1
    10     1     2   ar
    11     2     3   ar
    12     3     4   ar
    13     4     8    1
    14     8    10    1
    15    10    11    1
    16    11    12   ar
    17    12    13   ar
    18    13    14   ar
    19    14    17    1
    20    17    18    1
    21    17    19    1
    22    17    20    1
    23    14    15   ar
    24    15    16   ar
    25     4     5   ar
    26     5     6   ar
    27     6     7    1
    28    29    30    2
    29    30    31    1
    30    31    23    1
    31    30    26    1
    32     6     1   ar
    33    16    11   ar
    34     8     9    1
@<TRIPOS>MOLECULE
*****
 31 34 0 0 0
SMALL
GASTEIGER

@<TRIPOS>ATOM
      1 C          62.9602   84.5973   10.3338 C.ar    1  UNL1        0.0284
      2 C          62.1655   85.1404   11.4841 C.ar    1  UNL1        0.0027
      3 C          62.3090   84.5329   12.8481 C.ar    1  UNL1        0.0339
      4 C          63.2472   83.3821   13.0616 C.ar    1  UNL1        0.1311
      5 N          64.0420   82.8390   11.9111 N.ar    1  UNL1       -0.2035
      6 C          63.8985   83.4466   10.5472 C.ar    1  UNL1        0.2196
      7 F          64.6933   82.9035    9.3969 F       1  UNL1       -0.1835
      8 N          63.3907   82.7746   14.4255 N.pl3   1  UNL1       -0.3144
      9 H          63.0117   81.8850   14.6105 H       1  UNL1        0.1485
     10 C          64.1116   83.5224   15.5076 C.3     1  UNL1        0.1169
     11 C          63.9632   85.0110   15.6173 C.ar    1  UNL1        0.0166
     12 C          64.7430   85.9116   14.7058 C.ar    1  UNL1        0.0004
     13 C          64.5946   87.4003   14.8154 C.ar    1  UNL1        0.0228
     14 C          63.6665   87.9883   15.8366 C.ar    1  UNL1        0.1526
     15 N          62.8866   87.0876   16.7481 N.ar    1  UNL1       -0.2401
     16 C          63.0350   85.5991   16.6384 C.ar    1  UNL1        0.0961
     17 C          63.5181   89.4769   15.9462 C.3     1  UNL1        0.4348
     18 F          63.3698   90.9655   16.0558 F       1  UNL1       -0.1644
     19 F          63.2493   89.3419   17.4157 F       1  UNL1       -0.1644
     20 F          63.7870   89.6119   14.4766 F       1  UNL1       -0.1644
     21 C          62.8168   85.2049    8.9698 C.3     1  UNL1        0.0603
     22 C          62.8762   90.5289   11.5083 C.3     1  UNL1        0.0307
     23 C          62.0145   89.7327   10.5736 C.2     1  UNL1        0.0074
     24 C          60.7496   90.3274   10.0295 C.2     1  UNL1        0.2278
     25 N          59.8879   89.5313    9.0948 N.2     1  UNL1       -0.0314
     26 C          60.2912   88.1403    8.7042 C.2     1  UNL1        0.3716
     27 N          59.6487   87.1232    7.8084 N.2     1  UNL1       -0.0311
     28 C          60.5166   85.8998    7.7988 C.2     1  UNL1        0.2319
     29 C          61.6955   86.1608    8.6888 C.2     1  UNL1        0.0328
     30 C          61.5562   87.5456    9.2483 C.2     1  UNL1        0.0704
     31 C          62.4178   88.3417   10.1830 C.3     1  UNL1        0.0598
@<TRIPOS>BOND
     1    22    23    1
     2    23    24    2
     3    24    25    1
     4    25    26    2
     5    26    27    1
     6    27    28    2
     7    28    29    1
     8    29    21    1
     9    21     1    1
    10     1     2   ar
    11     2     3   ar
    12     3     4   ar
    13     4     8    1
    14     8    10    1
    15    10    11    1
    16    11    12   ar
    17    12    13   ar
    18    13    14   ar
    19    14    17    1
    20    17    18    1
    21    17    19    1
    22    17    20    1
    23    14    15   ar
    24    15    16   ar
    25     4     5   ar
    26     5     6   ar
    27     6     7    1
    28    29    30    2
    29    30    31    1
    30    31    23    1
    31    30    26    1
    32     6     1   ar
    33    16    11   ar
    34     8     9    1
@<TRIPOS>MOLECULE
*****
 31 34 0 0 0
SMALL
GASTEIGER

@<TRIPOS>ATOM
      1 C          62.2987   88.3402   11.3367 C.ar    1  UNL1        0.0284
      2 C          63.1549   88.0283   12.5282 C.ar    1  UNL1        0.0027
      3 C          63.9132   89.1254   13.2147 C.ar    1  UNL1        0.0339
      4 C          63.8154   90.5345   12.7097 C.ar    1  UNL1        0.1311
      5 N          62.9593   90.8463   11.5181 N.ar    1  UNL1       -0.2035
      6 C          62.2009   89.7492   10.8316 C.ar    1  UNL1        0.2196
      7 F          61.3448   90.0612    9.6401 F       1  UNL1       -0.1835
      8 N          64.5738   91.6316   13.3961 N.pl3   1  UNL1       -0.3144
      9 H          64.1271   92.1901   14.0727 H       1  UNL1        0.1485
     10 C          66.0128   91.8777   13.0518 C.3     1  UNL1        0.1169
     11 C          66.3696   92.8709   11.9858 C.ar    1  UNL1        0.0166
     12 C          66.8405   92.3943   10.6439 C.ar    1  UNL1        0.0004
     13 C          67.1973   93.3875    9.5779 C.ar    1  UNL1        0.0228
     14 C          67.0831   94.8574    9.8539 C.ar    1  UNL1        0.1526
     15 N          66.6121   95.3341   11.1960 N.ar    1  UNL1       -0.2401
     16 C          66.2554   94.3409   12.2618 C.ar    1  UNL1        0.0961
     17 C          67.4399   95.8506    8.7880 C.3     1  UNL1        0.4348
     18 F          67.7966   96.8438    7.7220 F       1  UNL1       -0.1644
     19 F          67.7952   96.8556    9.8433 F       1  UNL1       -0.1644
     20 F          67.0845   94.8455    7.7326 F       1  UNL1       -0.1644
     21 C          61.5404   87.2431   10.6503 C.3     1  UNL1        0.0603
     22 C          63.1137   82.8157   14.2160 C.3     1  UNL1        0.0307
     23 C          63.2197   83.1919   12.7678 C.2     1  UNL1        0.0074
     24 C          63.9043   82.2710   11.8019 C.2     1  UNL1        0.2278
     25 N          64.0103   82.6471   10.3537 N.2     1  UNL1       -0.0314
     26 C          63.4316   83.9443    9.8715 C.2     1  UNL1        0.3716
     27 N          63.3836   84.5785    8.5130 N.2     1  UNL1       -0.0311
     28 C          62.6693   85.8915    8.6394 C.2     1  UNL1        0.2319
     29 C          62.2758   86.0687   10.0759 C.2     1  UNL1        0.0328
     30 C          62.7470   84.8652   10.8374 C.2     1  UNL1        0.0704
     31 C          62.6410   84.4890   12.2856 C.3     1  UNL1        0.0598
@<TRIPOS>BOND
     1    22    23    1
     2    23    24    2
     3    24    25    1
     4    25    26    2
     5    26    27    1
     6    27    28    2
     7    28    29    1
     8    29    21    1
     9    21     1    1
    10     1     2   ar
    11     2     3   ar
    12     3     4   ar
    13     4     8    1
    14     8    10    1
    15    10    11    1
    16    11    12   ar
    17    12    13   ar
    18    13    14   ar
    19    14    17    1
    20    17    18    1
    21    17    19    1
    22    17    20    1
    23    14    15   ar
    24    15    16   ar
    25     4     5   ar
    26     5     6   ar
    27     6     7    1
    28    29    30    2
    29    30    31    1
    30    31    23    1
    31    30    26    1
    32     6     1   ar
    33    16    11   ar
    34     8     9    1
@<TRIPOS>MOLECULE
*****
 31 34 0 0 0
SMALL
GASTEIGER

@<TRIPOS>ATOM
      1 C          61.9605   87.1592   10.5328 C.ar    1  UNL1        0.0284
      2 C          62.7545   87.4737   11.7659 C.ar    1  UNL1        0.0027
      3 C          63.0588   88.8995   12.1187 C.ar    1  UNL1        0.0339
      4 C          62.5692   90.0109   11.2382 C.ar    1  UNL1        0.1311
      5 N          61.7753   89.6963   10.0050 N.ar    1  UNL1       -0.2035
      6 C          61.4709   88.2705    9.6522 C.ar    1  UNL1        0.2196
      7 F          60.6770   87.9561    8.4191 F       1  UNL1       -0.1835
      8 N          62.8736   91.4367   11.5910 N.pl3   1  UNL1       -0.3144
      9 H          62.1850   91.9958   12.0182 H       1  UNL1        0.1485
     10 C          64.2270   92.0106   11.2928 C.3     1  UNL1        0.1169
     11 C          65.2574   92.1050   12.3788 C.ar    1  UNL1        0.0166
     12 C          65.0248   91.4237   13.6947 C.ar    1  UNL1        0.0004
     13 C          66.0552   91.5181   14.7807 C.ar    1  UNL1        0.0228
     14 C          67.3183   92.2938   14.5507 C.ar    1  UNL1        0.1526
     15 N          67.5509   92.9751   13.2347 N.ar    1  UNL1       -0.2401
     16 C          66.5205   92.8807   12.1488 C.ar    1  UNL1        0.0961
     17 C          68.3487   92.3882   15.6367 C.3     1  UNL1        0.4348
     18 F          69.3791   92.4827   16.7227 F       1  UNL1       -0.1644
     19 F          69.4353   92.4189   14.6031 F       1  UNL1       -0.1644
     20 F          67.2620   92.3576   16.6703 F       1  UNL1       -0.1644
     21 C          61.6562   85.7334   10.1800 C.3     1  UNL1        0.0603
     22 C          62.3717   83.8488   15.7233 C.3     1  UNL1        0.0307
     23 C          62.9277   83.5764   14.3570 C.2     1  UNL1        0.0074
     24 C          63.9961   82.5395   14.1750 C.2     1  UNL1        0.2278
     25 N          64.5520   82.2671   12.8087 N.2     1  UNL1       -0.0314
     26 C          64.0395   83.0317   11.6244 C.2     1  UNL1        0.3716
     27 N          64.3934   82.9815   10.1676 N.2     1  UNL1       -0.0311
     28 C          63.5437   83.9875    9.4492 C.2     1  UNL1        0.2319
     29 C          62.6646   84.6594   10.4620 C.2     1  UNL1        0.0328
     30 C          62.9710   84.0686   11.8063 C.2     1  UNL1        0.0704
     31 C          62.4151   84.3410   13.1726 C.3     1  UNL1        0.0598
@<TRIPOS>BOND
     1    22    23    1
     2    23    24    2
     3    24    25    1
     4    25    26    2
     5    26    27    1
     6    27    28    2
     7    28    29    1
     8    29    21    1
     9    21     1    1
    10     1     2   ar
    11     2     3   ar
    12     3     4   ar
    13     4     8    1
    14     8    10    1
    15    10    11    1
    16    11    12   ar
    17    12    13   ar
    18    13    14   ar
    19    14    17    1
    20    17    18    1
    21    17    19    1
    22    17    20    1
    23    14    15   ar
    24    15    16   ar
    25     4     5   ar
    26     5     6   ar
    27     6     7    1
    28    29    30    2
    29    30    31    1
    30    31    23    1
    31    30    26    1
    32     6     1   ar
    33    16    11   ar
    34     8     9    1
@<TRIPOS>MOLECULE
*****
 31 34 0 0 0
SMALL
GASTEIGER

@<TRIPOS>ATOM
      1 C          63.6986   88.1184   15.7592 C.ar    1  UNL1        0.0284
      2 C          64.5631   87.5978   14.6495 C.ar    1  UNL1        0.0027
      3 C          64.8348   86.1268   14.5374 C.ar    1  UNL1        0.0339
      4 C          64.2419   85.1765   15.5351 C.ar    1  UNL1        0.1311
      5 N          63.3773   85.6972   16.6448 N.ar    1  UNL1       -0.2035
      6 C          63.1056   87.1681   16.7569 C.ar    1  UNL1        0.2196
      7 F          62.2411   87.6887   17.8666 F       1  UNL1       -0.1835
      8 N          64.5135   83.7056   15.4230 N.pl3   1  UNL1       -0.3144
      9 H          65.1669   83.2785   16.0230 H       1  UNL1        0.1485
     10 C          63.7897   82.8853   14.3968 C.3     1  UNL1        0.1169
     11 C          63.4747   83.4729   13.0531 C.ar    1  UNL1        0.0166
     12 C          64.1935   82.9809   11.8320 C.ar    1  UNL1        0.0004
     13 C          63.8784   83.5685   10.4884 C.ar    1  UNL1        0.0228
     14 C          62.8444   84.6482   10.3658 C.ar    1  UNL1        0.1526
     15 N          62.1256   85.1403   11.5869 N.ar    1  UNL1       -0.2401
     16 C          62.4407   84.5527   12.9305 C.ar    1  UNL1        0.0961
     17 C          62.5294   85.2358    9.0221 C.3     1  UNL1        0.4348
     18 F          62.2143   85.8235    7.6785 F       1  UNL1       -0.1644
     19 F          63.5866   84.3744    8.3975 F       1  UNL1       -0.1644
     20 F          61.4721   86.0973    9.6468 F       1  UNL1       -0.1644
     21 C          63.4269   89.5893   15.8712 C.3     1  UNL1        0.0603
     22 C          61.8604   89.5090   10.1852 C.3     1  UNL1        0.0307
     23 C          62.7989   90.2536   11.0878 C.2     1  UNL1        0.0074
     24 C          63.6740   91.3369   10.5307 C.2     1  UNL1        0.2278
     25 N          64.6125   92.0815   11.4334 N.2     1  UNL1       -0.0314
     26 C          64.6759   91.7427   12.8932 C.2     1  UNL1        0.3716
     27 N          65.4964   92.3003   14.0183 N.2     1  UNL1       -0.0311
     28 C          65.1284   91.5615   15.2708 C.2     1  UNL1        0.2319
     29 C          64.0804   90.5473   14.9198 C.2     1  UNL1        0.0328
     30 C          63.8008   90.6594   13.4503 C.2     1  UNL1        0.0704
     31 C          62.8623   89.9148   12.5477 C.3     1  UNL1        0.0598
@<TRIPOS>BOND
     1    22    23    1
     2    23    24    2
     3    24    25    1
     4    25    26    2
     5    26    27    1
     6    27    28    2
     7    28    29    1
     8    29    21    1
     9    21     1    1
    10     1     2   ar
    11     2     3   ar
    12     3     4   ar
    13     4     8    1
    14     8    10    1
    15    10    11    1
    16    11    12   ar
    17    12    13   ar
    18    13    14   ar
    19    14    17    1
    20    17    18    1
    21    17    19    1
    22    17    20    1
    23    14    15   ar
    24    15    16   ar
    25     4     5   ar
    26     5     6   ar
    27     6     7    1
    28    29    30    2
    29    30    31    1
    30    31    23    1
    31    30    26    1
    32     6     1   ar
    33    16    11   ar
    34     8     9    1
@<TRIPOS>MOLECULE
*****
 31 34 0 0 0
SMALL
GASTEIGER

@<TRIPOS>ATOM
      1 C          63.6233   86.4409   15.7731 C.ar    1  UNL1        0.0284
      2 C          64.2472   87.0976   14.5776 C.ar    1  UNL1        0.0027
      3 C          64.2910   88.5939   14.4813 C.ar    1  UNL1        0.0339
      4 C          63.7109   89.4335   15.5807 C.ar    1  UNL1        0.1311
      5 N          63.0870   88.7767   16.7763 N.ar    1  UNL1       -0.2035
      6 C          63.0432   87.2804   16.8726 C.ar    1  UNL1        0.2196
      7 F          62.4194   86.6238   18.0682 F       1  UNL1       -0.1835
      8 N          63.7547   90.9298   15.4844 N.pl3   1  UNL1       -0.3144
      9 H          62.9180   91.4485   15.4956 H       1  UNL1        0.1485
     10 C          65.0733   91.6357   15.3711 C.3     1  UNL1        0.1169
     11 C          65.6583   91.9198   14.0194 C.ar    1  UNL1        0.0166
     12 C          64.7643   92.0037   12.8179 C.ar    1  UNL1        0.0004
     13 C          65.3492   92.2878   11.4662 C.ar    1  UNL1        0.0228
     14 C          66.8282   92.4879   11.3159 C.ar    1  UNL1        0.1526
     15 N          67.7222   92.4039   12.5176 N.ar    1  UNL1       -0.2401
     16 C          67.1373   92.1199   13.8692 C.ar    1  UNL1        0.0961
     17 C          67.4132   92.7719    9.9642 C.3     1  UNL1        0.4348
     18 F          67.9981   93.0560    8.6125 F       1  UNL1       -0.1644
     19 F          66.3662   93.8206    9.7315 F       1  UNL1       -0.1644
     20 F          68.4601   91.7231   10.1970 F       1  UNL1       -0.1644
     21 C          63.5795   84.9447   15.8694 C.3     1  UNL1        0.0603
     22 C          60.1192   80.4479   14.2579 C.3     1  UNL1        0.0307
     23 C          61.4019   81.0963   13.8287 C.2     1  UNL1        0.0074
     24 C          62.1564   80.5581   12.6493 C.2     1  UNL1        0.2278
     25 N          63.4391   81.2066   12.2200 N.2     1  UNL1       -0.0314
     26 C          63.9673   82.3932   12.9702 C.2     1  UNL1        0.3716
     27 N          65.1947   83.2345   12.7820 N.2     1  UNL1       -0.0311
     28 C          65.1989   84.2927   13.8452 C.2     1  UNL1        0.2319
     29 C          63.9740   84.1054   14.6904 C.2     1  UNL1        0.0328
     30 C          63.2128   82.9314   14.1496 C.2     1  UNL1        0.0704
     31 C          61.9301   82.2829   14.5789 C.3     1  UNL1        0.0598
@<TRIPOS>BOND
     1    22    23    1
     2    23    24    2
     3    24    25    1
     4    25    26    2
     5    26    27    1
     6    27    28    2
     7    28    29    1
     8    29    21    1
     9    21     1    1
    10     1     2   ar
    11     2     3   ar
    12     3     4   ar
    13     4     8    1
    14     8    10    1
    15    10    11    1
    16    11    12   ar
    17    12    13   ar
    18    13    14   ar
    19    14    17    1
    20    17    18    1
    21    17    19    1
    22    17    20    1
    23    14    15   ar
    24    15    16   ar
    25     4     5   ar
    26     5     6   ar
    27     6     7    1
    28    29    30    2
    29    30    31    1
    30    31    23    1
    31    30    26    1
    32     6     1   ar
    33    16    11   ar
    34     8     9    1
@<TRIPOS>MOLECULE
*****
 31 34 0 0 0
SMALL
GASTEIGER

@<TRIPOS>ATOM
      1 C          63.7832   88.6684   15.6779 C.ar    1  UNL1        0.0284
      2 C          64.5405   88.0048   14.5661 C.ar    1  UNL1        0.0027
      3 C          64.7005   86.5134   14.5533 C.ar    1  UNL1        0.0339
      4 C          64.1032   85.6855   15.6523 C.ar    1  UNL1        0.1311
      5 N          63.3458   86.3492   16.7641 N.ar    1  UNL1       -0.2035
      6 C          63.1858   87.8405   16.7770 C.ar    1  UNL1        0.2196
      7 F          62.4285   88.5040   17.8888 F       1  UNL1       -0.1835
      8 N          64.2632   84.1942   15.6394 N.pl3   1  UNL1       -0.3144
      9 H          65.1470   83.7925   15.8031 H       1  UNL1        0.1485
     10 C          63.0766   83.3148   15.3773 C.3     1  UNL1        0.1169
     11 C          63.0321   82.4635   14.1431 C.ar    1  UNL1        0.0166
     12 C          62.2523   81.1821   14.1435 C.ar    1  UNL1        0.0004
     13 C          62.2078   80.3308   12.9093 C.ar    1  UNL1        0.0228
     14 C          62.9432   80.7607   11.6747 C.ar    1  UNL1        0.1526
     15 N          63.7231   82.0421   11.6743 N.ar    1  UNL1       -0.2401
     16 C          63.7675   82.8934   12.9085 C.ar    1  UNL1        0.0961
     17 C          62.8987   79.9094   10.4405 C.3     1  UNL1        0.4348
     18 F          62.8543   79.0580    9.2063 F       1  UNL1       -0.1644
     19 F          63.1601   81.1208    9.5954 F       1  UNL1       -0.1644
     20 F          62.6374   78.6980   11.2857 F       1  UNL1       -0.1644
     21 C          63.6232   90.1598   15.6907 C.3     1  UNL1        0.0603
     22 C          61.8200   89.9281   10.0794 C.3     1  UNL1        0.0307
     23 C          62.8615   90.6256   10.9033 C.2     1  UNL1        0.0074
     24 C          63.8109   91.5882   10.2538 C.2     1  UNL1        0.2278
     25 N          64.8524   92.2857   11.0777 N.2     1  UNL1       -0.0314
     26 C          64.9444   92.0207   12.5511 C.2     1  UNL1        0.3716
     27 N          65.8602   92.5556   13.6119 N.2     1  UNL1       -0.0311
     28 C          65.4767   91.9236   14.9171 C.2     1  UNL1        0.2319
     29 C          64.3240   90.9981   14.6631 C.2     1  UNL1        0.0328
     30 C          63.9950   91.0581   13.2007 C.2     1  UNL1        0.0704
     31 C          62.9535   90.3606   12.3768 C.3     1  UNL1        0.0598
@<TRIPOS>BOND
     1    22    23    1
     2    23    24    2
     3    24    25    1
     4    25    26    2
     5    26    27    1
     6    27    28    2
     7    28    29    1
     8    29    21    1
     9    21     1    1
    10     1     2   ar
    11     2     3   ar
    12     3     4   ar
    13     4     8    1
    14     8    10    1
    15    10    11    1
    16    11    12   ar
    17    12    13   ar
    18    13    14   ar
    19    14    17    1
    20    17    18    1
    21    17    19    1
    22    17    20    1
    23    14    15   ar
    24    15    16   ar
    25     4     5   ar
    26     5     6   ar
    27     6     7    1
    28    29    30    2
    29    30    31    1
    30    31    23    1
    31    30    26    1
    32     6     1   ar
    33    16    11   ar
    34     8     9    1
@<TRIPOS>MOLECULE
*****
 31 34 0 0 0
SMALL
GASTEIGER

@<TRIPOS>ATOM
      1 C          63.4853   86.9663   13.0660 C.ar    1  UNL1        0.0284
      2 C          64.1466   87.1069   14.4049 C.ar    1  UNL1        0.0027
      3 C          64.4062   88.4704   14.9737 C.ar    1  UNL1        0.0339
      4 C          64.0045   89.6933   14.2035 C.ar    1  UNL1        0.1311
      5 N          63.3432   89.5526   12.8645 N.ar    1  UNL1       -0.2035
      6 C          63.0836   88.1891   12.2957 C.ar    1  UNL1        0.2196
      7 F          62.4223   88.0486   10.9567 F       1  UNL1       -0.1835
      8 N          64.2641   91.0568   14.7723 N.pl3   1  UNL1       -0.3144
      9 H          63.5398   91.5482   15.2229 H       1  UNL1        0.1485
     10 C          65.6273   91.6714   14.6545 C.3     1  UNL1        0.1169
     11 C          66.1831   92.0101   13.3031 C.ar    1  UNL1        0.0166
     12 C          65.2836   92.5691   12.2408 C.ar    1  UNL1        0.0004
     13 C          65.8394   92.9078   10.8894 C.ar    1  UNL1        0.0228
     14 C          67.2947   92.6875   10.6001 C.ar    1  UNL1        0.1526
     15 N          68.1941   92.1284   11.6625 N.ar    1  UNL1       -0.2401
     16 C          67.6384   91.7898   13.0139 C.ar    1  UNL1        0.0961
     17 C          67.8504   93.0262    9.2487 C.3     1  UNL1        0.4348
     18 F          68.4062   93.3649    7.8973 F       1  UNL1       -0.1644
     19 F          66.7117   93.9750    9.0182 F       1  UNL1       -0.1644
     20 F          68.9891   92.0773    9.4792 F       1  UNL1       -0.1644
     21 C          63.2257   85.6028   12.4972 C.3     1  UNL1        0.0603
     22 C          62.9381   80.1701   10.2179 C.3     1  UNL1        0.0307
     23 C          62.8569   80.8385   11.5583 C.2     1  UNL1        0.0074
     24 C          62.6396   80.0167   12.7942 C.2     1  UNL1        0.2278
     25 N          62.5585   80.6850   14.1346 N.2     1  UNL1       -0.0314
     26 C          62.6946   82.1751   14.2392 C.2     1  UNL1        0.3716
     27 N          62.6576   83.1064   15.4145 N.2     1  UNL1       -0.0311
     28 C          62.8521   84.5038   14.9050 C.2     1  UNL1        0.2319
     29 C          63.0092   84.4362   13.4148 C.2     1  UNL1        0.0328
     30 C          62.9119   82.9969   13.0033 C.2     1  UNL1        0.0704
     31 C          62.9931   82.3286   11.6629 C.3     1  UNL1        0.0598
@<TRIPOS>BOND
     1    22    23    1
     2    23    24    2
     3    24    25    1
     4    25    26    2
     5    26    27    1
     6    27    28    2
     7    28    29    1
     8    29    21    1
     9    21     1    1
    10     1     2   ar
    11     2     3   ar
    12     3     4   ar
    13     4     8    1
    14     8    10    1
    15    10    11    1
    16    11    12   ar
    17    12    13   ar
    18    13    14   ar
    19    14    17    1
    20    17    18    1
    21    17    19    1
    22    17    20    1
    23    14    15   ar
    24    15    16   ar
    25     4     5   ar
    26     5     6   ar
    27     6     7    1
    28    29    30    2
    29    30    31    1
    30    31    23    1
    31    30    26    1
    32     6     1   ar
    33    16    11   ar
    34     8     9    1
@<TRIPOS>MOLECULE
*****
 31 34 0 0 0
SMALL
GASTEIGER

@<TRIPOS>ATOM
      1 C          63.6146   86.4774   15.6390 C.ar    1  UNL1        0.0284
      2 C          64.3675   87.1769   14.5465 C.ar    1  UNL1        0.0027
      3 C          64.4455   88.6747   14.5295 C.ar    1  UNL1        0.0339
      4 C          63.7705   89.4732   15.6050 C.ar    1  UNL1        0.1311
      5 N          63.0174   88.7736   16.6976 N.ar    1  UNL1       -0.2035
      6 C          62.9395   87.2758   16.7146 C.ar    1  UNL1        0.2196
      7 F          62.1864   86.5763   17.8072 F       1  UNL1       -0.1835
      8 N          63.8484   90.9710   15.5880 N.pl3   1  UNL1       -0.3144
      9 H          63.0272   91.5077   15.6706 H       1  UNL1        0.1485
     10 C          65.1776   91.6513   15.4450 C.3     1  UNL1        0.1169
     11 C          65.7341   91.9309   14.0804 C.ar    1  UNL1        0.0166
     12 C          64.8154   92.0094   12.8974 C.ar    1  UNL1        0.0004
     13 C          65.3719   92.2890   11.5328 C.ar    1  UNL1        0.0228
     14 C          66.8472   92.4901   11.3512 C.ar    1  UNL1        0.1526
     15 N          67.7660   92.4116   12.5344 N.ar    1  UNL1       -0.2401
     16 C          67.2095   92.1320   13.8989 C.ar    1  UNL1        0.0961
     17 C          67.4037   92.7697    9.9866 C.3     1  UNL1        0.4348
     18 F          67.9602   93.0493    8.6221 F       1  UNL1       -0.1644
     19 F          66.4302   93.8988    9.8210 F       1  UNL1       -0.1644
     20 F          68.3772   91.6406   10.1524 F       1  UNL1       -0.1644
     21 C          63.5366   84.9795   15.6561 C.3     1  UNL1        0.0603
     22 C          61.3050   86.9444   10.5619 C.3     1  UNL1        0.0307
     23 C          62.1312   85.7983   11.0658 C.2     1  UNL1        0.0074
     24 C          62.6162   84.7470   10.1122 C.2     1  UNL1        0.2278
     25 N          63.4423   83.6009   10.6161 N.2     1  UNL1       -0.0314
     26 C          63.7835   83.5061   12.0737 C.2     1  UNL1        0.3716
     27 N          64.5743   82.4999   12.8561 N.2     1  UNL1       -0.0311
     28 C          64.5781   82.9294   14.2933 C.2     1  UNL1        0.2319
     29 C          63.7896   84.2010   14.3992 C.2     1  UNL1        0.0328
     30 C          63.2985   84.5574   13.0273 C.2     1  UNL1        0.0704
     31 C          62.4724   85.7035   12.5234 C.3     1  UNL1        0.0598
@<TRIPOS>BOND
     1    22    23    1
     2    23    24    2
     3    24    25    1
     4    25    26    2
     5    26    27    1
     6    27    28    2
     7    28    29    1
     8    29    21    1
     9    21     1    1
    10     1     2   ar
    11     2     3   ar
    12     3     4   ar
    13     4     8    1
    14     8    10    1
    15    10    11    1
    16    11    12   ar
    17    12    13   ar
    18    13    14   ar
    19    14    17    1
    20    17    18    1
    21    17    19    1
    22    17    20    1
    23    14    15   ar
    24    15    16   ar
    25     4     5   ar
    26     5     6   ar
    27     6     7    1
    28    29    30    2
    29    30    31    1
    30    31    23    1
    31    30    26    1
    32     6     1   ar
    33    16    11   ar
    34     8     9    1
