@<TRIPOS>MOLECULE
*****
 29 33 0 0 0
SMALL
GASTEIGER

@<TRIPOS>ATOM
      1 N          63.7713   89.2946   13.9162 N.am    1  UNL1       -0.2334
      2 C          63.7462   87.8088   13.7112 C.3     1  UNL1        0.2104
      3 N          63.4931   87.1617   15.0405 N.ar    1  UNL1       -0.3057
      4 C          63.3619   88.2474   16.0672 C.ar    1  UNL1        0.1158
      5 C          63.1089   87.6002   17.3965 C.ar    1  UNL1        0.0234
      6 C          63.0838   86.1145   17.1914 C.ar    1  UNL1        0.0189
      7 C          63.3212   85.8435   15.7354 C.ar    1  UNL1        0.0614
      8 C          63.5339   89.5656   15.3723 C.2     1  UNL1        0.2701
      9 O          63.4781   90.9175   16.0198 O.2     1  UNL1       -0.2679
     10 C          62.9798   90.5150   11.7636 C.ar    1  UNL1        0.0673
     11 C          63.2031   91.5483   10.6994 C.ar    1  UNL1        0.0058
     12 C          64.4415   92.3943   10.7237 C.ar    1  UNL1        0.0002
     13 C          65.4566   92.2070   11.8122 C.ar    1  UNL1        0.0013
     14 C          65.2332   91.1738   12.8763 C.ar    1  UNL1        0.0151
     15 C          63.9947   90.3278   12.8521 C.ar    1  UNL1        0.0603
     16 O          60.5915   89.9965   12.6453 O.2     1  UNL1       -0.2699
     17 C          61.7413   89.6690   11.7394 C.2     1  UNL1        0.2502
     18 N          61.6528   88.4955   10.8092 N.am    1  UNL1       -0.2760
     19 C          60.4143   87.6496   10.7850 C.3     1  UNL1        0.0937
     20 C          60.3257   86.4761    9.8548 C.3     1  UNL1        0.0216
     21 C          61.4756   86.1487    8.9489 C.3     1  UNL1        0.0035
     22 C          62.7140   86.9947    8.9732 C.3     1  UNL1        0.0216
     23 C          62.8025   88.1681    9.9033 C.3     1  UNL1        0.0937
     24 C          63.3770   84.4916   15.0879 C.ar    1  UNL1        0.0158
     25 C          64.5822   84.0915   14.2896 C.ar    1  UNL1        0.0014
     26 C          64.6380   82.7396   13.6420 C.ar    1  UNL1        0.0000
     27 C          63.4886   81.7878   13.7928 C.ar    1  UNL1        0.0000
     28 C          62.2833   82.1879   14.5912 C.ar    1  UNL1        0.0000
     29 C          62.2275   83.5398   15.2387 C.ar    1  UNL1        0.0014
@<TRIPOS>BOND
     1    16    17    2
     2    17    10    1
     3    10    11   ar
     4    11    12   ar
     5    12    13   ar
     6    13    14   ar
     7    14    15   ar
     8    15     1    1
     9     1     2    1
    10     2     3    1
    11     3     4   ar
    12     4     5   ar
    13     5     6   ar
    14     6     7   ar
    15     7    24    1
    16    24    25   ar
    17    25    26   ar
    18    26    27   ar
    19    27    28   ar
    20    28    29   ar
    21     4     8    1
    22     8     9    2
    23    17    18   am
    24    18    19    1
    25    19    20    1
    26    20    21    1
    27    21    22    1
    28    22    23    1
    29    15    10   ar
    30     8     1   am
    31    23    18    1
    32     7     3   ar
    33    29    24   ar
@<TRIPOS>MOLECULE
*****
 29 33 0 0 0
SMALL
GASTEIGER

@<TRIPOS>ATOM
      1 N          61.7067   86.2727    9.5246 N.am    1  UNL1       -0.2334
      2 C          61.8974   86.2225   11.0116 C.3     1  UNL1        0.2104
      3 N          62.8369   85.0948   11.3207 N.ar    1  UNL1       -0.3057
      4 C          63.2269   84.4479   10.0248 C.ar    1  UNL1        0.1158
      5 C          64.1664   83.3201   10.3338 C.ar    1  UNL1        0.0234
      6 C          64.3570   83.2700   11.8208 C.ar    1  UNL1        0.0189
      7 C          63.5353   84.3668   12.4308 C.ar    1  UNL1        0.0614
      8 C          62.5284   85.1759    8.9147 C.2     1  UNL1        0.2701
      9 O          62.6332   84.8622    7.4516 O.2     1  UNL1       -0.2679
     10 C          60.4182   88.5269    9.4360 C.ar    1  UNL1        0.0673
     11 C          59.5571   89.5026    8.6899 C.ar    1  UNL1        0.0058
     12 C          59.1234   89.1995    7.2863 C.ar    1  UNL1        0.0002
     13 C          59.5509   87.9208    6.6288 C.ar    1  UNL1        0.0013
     14 C          60.4120   86.9452    7.3749 C.ar    1  UNL1        0.0151
     15 C          60.8457   87.2482    8.7785 C.ar    1  UNL1        0.0603
     16 O          60.1468   88.1882   11.9975 O.2     1  UNL1       -0.2699
     17 C          60.8519   88.8300   10.8395 C.2     1  UNL1        0.2502
     18 N          61.9908   89.7749   11.0852 N.am    1  UNL1       -0.2760
     19 C          62.4244   90.0779   12.4888 C.3     1  UNL1        0.0937
     20 C          63.5632   91.0228   12.7344 C.3     1  UNL1        0.0216
     21 C          64.2684   91.6646   11.5765 C.3     1  UNL1        0.0035
     22 C          63.8347   91.3616   10.1729 C.3     1  UNL1        0.0216
     23 C          62.6959   90.4167    9.9273 C.3     1  UNL1        0.0937
     24 C          63.4306   84.6805   13.8938 C.ar    1  UNL1        0.0158
     25 C          64.2626   85.7787   14.4868 C.ar    1  UNL1        0.0014
     26 C          64.1578   86.0925   15.9500 C.ar    1  UNL1        0.0000
     27 C          63.2211   85.3080   16.8200 C.ar    1  UNL1        0.0000
     28 C          62.3891   84.2097   16.2269 C.ar    1  UNL1        0.0000
     29 C          62.4938   83.8960   14.7639 C.ar    1  UNL1        0.0014
@<TRIPOS>BOND
     1    16    17    2
     2    17    10    1
     3    10    11   ar
     4    11    12   ar
     5    12    13   ar
     6    13    14   ar
     7    14    15   ar
     8    15     1    1
     9     1     2    1
    10     2     3    1
    11     3     4   ar
    12     4     5   ar
    13     5     6   ar
    14     6     7   ar
    15     7    24    1
    16    24    25   ar
    17    25    26   ar
    18    26    27   ar
    19    27    28   ar
    20    28    29   ar
    21     4     8    1
    22     8     9    2
    23    17    18   am
    24    18    19    1
    25    19    20    1
    26    20    21    1
    27    21    22    1
    28    22    23    1
    29    15    10   ar
    30     8     1   am
    31    23    18    1
    32     7     3   ar
    33    29    24   ar
@<TRIPOS>MOLECULE
*****
 29 33 0 0 0
SMALL
GASTEIGER

@<TRIPOS>ATOM
      1 N          63.1641   93.8933    0.8126 N.am    1  UNL1       -0.2334
      2 C          63.0978   93.6187   -0.6607 C.3     1  UNL1        0.2104
      3 N          63.9527   94.6334   -1.3603 N.ar    1  UNL1       -0.3057
      4 C          64.5473   95.5353   -0.3195 C.ar    1  UNL1        0.1158
      5 C          65.4021   96.5501   -1.0191 C.ar    1  UNL1        0.0234
      6 C          65.3359   96.2754   -2.4922 C.ar    1  UNL1        0.0189
      7 C          64.4401   95.0908   -2.7031 C.ar    1  UNL1        0.0614
      8 C          64.0599   95.0779    1.0233 C.2     1  UNL1        0.2701
      9 O          64.4072   95.6964    2.3450 O.2     1  UNL1       -0.2679
     10 C          61.0541   93.4798    2.2709 C.ar    1  UNL1        0.0673
     11 C          60.3484   92.7059    3.3447 C.ar    1  UNL1        0.0058
     12 C          61.0471   91.5715    4.0339 C.ar    1  UNL1        0.0002
     13 C          62.4515   91.2111    3.6493 C.ar    1  UNL1        0.0013
     14 C          63.1571   91.9850    2.5756 C.ar    1  UNL1        0.0151
     15 C          62.4584   93.1194    1.8863 C.ar    1  UNL1        0.0603
     16 O          60.5537   96.0208    2.0634 O.2     1  UNL1       -0.2699
     17 C          60.3554   94.6141    1.5816 C.2     1  UNL1        0.2502
     18 N          59.4583   94.3419    0.4106 N.am    1  UNL1       -0.2760
     19 C          58.7597   95.4763   -0.2786 C.3     1  UNL1        0.0937
     20 C          57.8626   95.2040   -1.4496 C.3     1  UNL1        0.0216
     21 C          57.6643   93.7974   -1.9314 C.3     1  UNL1        0.0035
     22 C          58.3631   92.6631   -1.2422 C.3     1  UNL1        0.0216
     23 C          59.2600   92.9353   -0.0712 C.3     1  UNL1        0.0937
     24 C          64.0927   94.4723   -4.0247 C.ar    1  UNL1        0.0158
     25 C          63.3370   95.2662   -5.0488 C.ar    1  UNL1        0.0014
     26 C          62.9896   94.6477   -6.3705 C.ar    1  UNL1        0.0000
     27 C          63.3979   93.2354   -6.6681 C.ar    1  UNL1        0.0000
     28 C          64.1536   92.4415   -5.6439 C.ar    1  UNL1        0.0000
     29 C          64.5010   93.0599   -4.3223 C.ar    1  UNL1        0.0014
@<TRIPOS>BOND
     1    16    17    2
     2    17    10    1
     3    10    11   ar
     4    11    12   ar
     5    12    13   ar
     6    13    14   ar
     7    14    15   ar
     8    15     1    1
     9     1     2    1
    10     2     3    1
    11     3     4   ar
    12     4     5   ar
    13     5     6   ar
    14     6     7   ar
    15     7    24    1
    16    24    25   ar
    17    25    26   ar
    18    26    27   ar
    19    27    28   ar
    20    28    29   ar
    21     4     8    1
    22     8     9    2
    23    17    18   am
    24    18    19    1
    25    19    20    1
    26    20    21    1
    27    21    22    1
    28    22    23    1
    29    15    10   ar
    30     8     1   am
    31    23    18    1
    32     7     3   ar
    33    29    24   ar
@<TRIPOS>MOLECULE
*****
 29 33 0 0 0
SMALL
GASTEIGER

@<TRIPOS>ATOM
      1 N          61.7852   89.7991   10.2469 N.am    1  UNL1       -0.2334
      2 C          63.0367   90.5293    9.8584 C.3     1  UNL1        0.2104
      3 N          63.6699   91.0619   11.1095 N.ar    1  UNL1       -0.3057
      4 C          62.8100   90.6608   12.2713 C.ar    1  UNL1        0.1158
      5 C          63.4432   91.1934   13.5224 C.ar    1  UNL1        0.0234
      6 C          64.6946   91.9236   13.1339 C.ar    1  UNL1        0.0189
      7 C          64.8347   91.8423   11.6427 C.ar    1  UNL1        0.0614
      8 C          61.6452   89.8804   11.7381 C.2     1  UNL1        0.2701
      9 O          60.5352   89.2857   12.5531 O.2     1  UNL1       -0.2679
     10 C          60.5043   87.6612    9.5131 C.ar    1  UNL1        0.0673
     11 C          59.5590   86.9709    8.5751 C.ar    1  UNL1        0.0058
     12 C          58.9494   87.7282    7.4328 C.ar    1  UNL1        0.0002
     13 C          59.2851   89.1759    7.2285 C.ar    1  UNL1        0.0013
     14 C          60.2304   89.8662    8.1665 C.ar    1  UNL1        0.0151
     15 C          60.8400   89.1088    9.3089 C.ar    1  UNL1        0.0603
     16 O          60.7297   87.2374   12.0665 O.2     1  UNL1       -0.2699
     17 C          61.1139   86.9039   10.6554 C.2     1  UNL1        0.2502
     18 N          62.1078   85.8129   10.3866 N.am    1  UNL1       -0.2760
     19 C          62.7173   85.0557   11.5289 C.3     1  UNL1        0.0937
     20 C          63.7112   83.9647   11.2601 C.3     1  UNL1        0.0216
     21 C          64.0954   83.6312    9.8491 C.3     1  UNL1        0.0035
     22 C          63.4858   84.3885    8.7068 C.3     1  UNL1        0.0216
     23 C          62.4920   85.4794    8.9756 C.3     1  UNL1        0.0937
     24 C          65.9447   92.4370   10.8277 C.ar    1  UNL1        0.0158
     25 C          65.7759   93.7916   10.2060 C.ar    1  UNL1        0.0014
     26 C          66.8860   94.3864    9.3910 C.ar    1  UNL1        0.0000
     27 C          68.1647   93.6266    9.1977 C.ar    1  UNL1        0.0000
     28 C          68.3334   92.2719    9.8194 C.ar    1  UNL1        0.0000
     29 C          67.2235   91.6771   10.6344 C.ar    1  UNL1        0.0014
@<TRIPOS>BOND
     1    16    17    2
     2    17    10    1
     3    10    11   ar
     4    11    12   ar
     5    12    13   ar
     6    13    14   ar
     7    14    15   ar
     8    15     1    1
     9     1     2    1
    10     2     3    1
    11     3     4   ar
    12     4     5   ar
    13     5     6   ar
    14     6     7   ar
    15     7    24    1
    16    24    25   ar
    17    25    26   ar
    18    26    27   ar
    19    27    28   ar
    20    28    29   ar
    21     4     8    1
    22     8     9    2
    23    17    18   am
    24    18    19    1
    25    19    20    1
    26    20    21    1
    27    21    22    1
    28    22    23    1
    29    15    10   ar
    30     8     1   am
    31    23    18    1
    32     7     3   ar
    33    29    24   ar
@<TRIPOS>MOLECULE
*****
 29 33 0 0 0
SMALL
GASTEIGER

@<TRIPOS>ATOM
      1 N          63.7798   86.0337   14.5428 N.am    1  UNL1       -0.2334
      2 C          64.2623   87.2482   13.8063 C.3     1  UNL1        0.2104
      3 N          64.0269   88.4443   14.6803 N.ar    1  UNL1       -0.3057
      4 C          63.3989   87.9691   15.9570 C.ar    1  UNL1        0.1158
      5 C          63.1636   89.1652   16.8311 C.ar    1  UNL1        0.0234
      6 C          63.6461   90.3796   16.0945 C.ar    1  UNL1        0.0189
      7 C          64.1796   89.9340   14.7653 C.ar    1  UNL1        0.0614
      8 C          63.2462   86.4793   15.8720 C.2     1  UNL1        0.2701
      9 O          62.6624   85.5911   16.9303 O.2     1  UNL1       -0.2679
     10 C          63.0523   84.2400   12.8098 C.ar    1  UNL1        0.0673
     11 C          63.0957   82.8280   12.3055 C.ar    1  UNL1        0.0058
     12 C          63.9100   81.7976   13.0302 C.ar    1  UNL1        0.0002
     13 C          64.6810   82.1793   14.2591 C.ar    1  UNL1        0.0013
     14 C          64.6376   83.5912   14.7632 C.ar    1  UNL1        0.0151
     15 C          63.8232   84.6217   14.0386 C.ar    1  UNL1        0.0603
     16 O          61.3678   86.2175   12.8572 O.2     1  UNL1       -0.2699
     17 C          62.2379   85.2704   12.0852 C.2     1  UNL1        0.2502
     18 N          62.2937   85.3537   10.5884 N.am    1  UNL1       -0.2760
     19 C          61.4792   86.3842    9.8639 C.3     1  UNL1        0.0937
     20 C          61.5350   86.4675    8.3672 C.3     1  UNL1        0.0216
     21 C          62.4051   85.5204    7.5952 C.3     1  UNL1        0.0035
     22 C          63.2194   84.4900    8.3198 C.3     1  UNL1        0.0216
     23 C          63.1637   84.4067    9.8165 C.3     1  UNL1        0.0937
     24 C          64.7634   90.8223   13.7070 C.ar    1  UNL1        0.0158
     25 C          64.0240   91.0419   12.4205 C.ar    1  UNL1        0.0014
     26 C          64.6078   91.9302   11.3621 C.ar    1  UNL1        0.0000
     27 C          65.9309   92.5989   11.5902 C.ar    1  UNL1        0.0000
     28 C          66.6703   92.3793   12.8767 C.ar    1  UNL1        0.0000
     29 C          66.0866   91.4910   13.9351 C.ar    1  UNL1        0.0014
@<TRIPOS>BOND
     1    16    17    2
     2    17    10    1
     3    10    11   ar
     4    11    12   ar
     5    12    13   ar
     6    13    14   ar
     7    14    15   ar
     8    15     1    1
     9     1     2    1
    10     2     3    1
    11     3     4   ar
    12     4     5   ar
    13     5     6   ar
    14     6     7   ar
    15     7    24    1
    16    24    25   ar
    17    25    26   ar
    18    26    27   ar
    19    27    28   ar
    20    28    29   ar
    21     4     8    1
    22     8     9    2
    23    17    18   am
    24    18    19    1
    25    19    20    1
    26    20    21    1
    27    21    22    1
    28    22    23    1
    29    15    10   ar
    30     8     1   am
    31    23    18    1
    32     7     3   ar
    33    29    24   ar
@<TRIPOS>MOLECULE
*****
 29 33 0 0 0
SMALL
GASTEIGER

@<TRIPOS>ATOM
      1 N          63.8001   86.1740   14.3992 N.am    1  UNL1       -0.2334
      2 C          64.1025   87.3620   13.5347 C.3     1  UNL1        0.2104
      3 N          63.9545   88.5960   14.3745 N.ar    1  UNL1       -0.3057
      4 C          63.5606   88.1708   15.7580 C.ar    1  UNL1        0.1158
      5 C          63.4126   89.4048   16.5978 C.ar    1  UNL1        0.0234
      6 C          63.7151   90.5927   15.7333 C.ar    1  UNL1        0.0189
      7 C          64.0500   90.0929   14.3593 C.ar    1  UNL1        0.0614
      8 C          63.4652   86.6739   15.7732 C.2     1  UNL1        0.2701
      9 O          63.0991   85.8257   16.9550 O.2     1  UNL1       -0.2679
     10 C          63.0285   84.2989   12.7749 C.ar    1  UNL1        0.0673
     11 C          63.0560   82.8631   12.3413 C.ar    1  UNL1        0.0058
     12 C          63.8830   81.8668   13.0987 C.ar    1  UNL1        0.0002
     13 C          64.6823   82.3063   14.2896 C.ar    1  UNL1        0.0013
     14 C          64.6546   83.7419   14.7230 C.ar    1  UNL1        0.0151
     15 C          63.8277   84.7383   13.9657 C.ar    1  UNL1        0.0603
     16 O          61.3094   86.2469   12.7581 O.2     1  UNL1       -0.2699
     17 C          62.2015   85.2952   12.0175 C.2     1  UNL1        0.2502
     18 N          62.2667   85.3398   10.5195 N.am    1  UNL1       -0.2760
     19 C          61.4398   86.3362    9.7623 C.3     1  UNL1        0.0937
     20 C          61.5050   86.3808    8.2643 C.3     1  UNL1        0.0216
     21 C          62.3971   85.4291    7.5238 C.3     1  UNL1        0.0035
     22 C          63.2240   84.4328    8.2811 C.3     1  UNL1        0.0216
     23 C          63.1588   84.3882    9.7790 C.3     1  UNL1        0.0937
     24 C          64.4161   90.9411   13.1775 C.ar    1  UNL1        0.0158
     25 C          65.5693   91.8959   13.2682 C.ar    1  UNL1        0.0014
     26 C          65.9355   92.7442   12.0864 C.ar    1  UNL1        0.0000
     27 C          65.1484   92.6375   10.8140 C.ar    1  UNL1        0.0000
     28 C          63.9951   91.6825   10.7234 C.ar    1  UNL1        0.0000
     29 C          63.6289   90.8344   11.9051 C.ar    1  UNL1        0.0014
@<TRIPOS>BOND
     1    16    17    2
     2    17    10    1
     3    10    11   ar
     4    11    12   ar
     5    12    13   ar
     6    13    14   ar
     7    14    15   ar
     8    15     1    1
     9     1     2    1
    10     2     3    1
    11     3     4   ar
    12     4     5   ar
    13     5     6   ar
    14     6     7   ar
    15     7    24    1
    16    24    25   ar
    17    25    26   ar
    18    26    27   ar
    19    27    28   ar
    20    28    29   ar
    21     4     8    1
    22     8     9    2
    23    17    18   am
    24    18    19    1
    25    19    20    1
    26    20    21    1
    27    21    22    1
    28    22    23    1
    29    15    10   ar
    30     8     1   am
    31    23    18    1
    32     7     3   ar
    33    29    24   ar
@<TRIPOS>MOLECULE
*****
 29 33 0 0 0
SMALL
GASTEIGER

@<TRIPOS>ATOM
      1 N          62.8622   89.9116   11.5559 N.am    1  UNL1       -0.2334
      2 C          63.9299   90.6944   10.8507 C.3     1  UNL1        0.2104
      3 N          64.6664   91.5029   11.8772 N.ar    1  UNL1       -0.3057
      4 C          64.0540   91.2199   13.2169 C.ar    1  UNL1        0.1158
      5 C          64.7905   92.0284   14.2435 C.ar    1  UNL1        0.0234
      6 C          65.8581   92.8111   13.5382 C.ar    1  UNL1        0.0189
      7 C          65.7815   92.4864   12.0758 C.ar    1  UNL1        0.0614
      8 C          62.9389   90.2364   13.0183 C.2     1  UNL1        0.2701
      9 O          62.0555   89.6761   14.0934 O.2     1  UNL1       -0.2679
     10 C          61.9308   87.5068   11.2412 C.ar    1  UNL1        0.0673
     11 C          60.9574   86.5646   10.5972 C.ar    1  UNL1        0.0058
     12 C          59.9419   87.0853    9.6237 C.ar    1  UNL1        0.0002
     13 C          59.8999   88.5482    9.2943 C.ar    1  UNL1        0.0013
     14 C          60.8733   89.4902    9.9383 C.ar    1  UNL1        0.0151
     15 C          61.8888   88.9696   10.9119 C.ar    1  UNL1        0.0603
     16 O          63.7405   87.9429   13.0537 O.2     1  UNL1       -0.2699
     17 C          62.9463   86.9861   12.2147 C.2     1  UNL1        0.2502
     18 N          63.1676   85.5085   12.3492 N.am    1  UNL1       -0.2760
     19 C          64.1831   84.9880   13.3228 C.3     1  UNL1        0.0937
     20 C          64.4044   83.5104   13.4573 C.3     1  UNL1        0.0216
     21 C          63.6103   82.5536   12.6183 C.3     1  UNL1        0.0035
     22 C          62.5948   83.0743   11.6448 C.3     1  UNL1        0.0216
     23 C          62.3735   84.5518   11.5103 C.3     1  UNL1        0.0937
     24 C          66.6648   93.0467   11.0008 C.ar    1  UNL1        0.0158
     25 C          67.6808   92.1691   10.3317 C.ar    1  UNL1        0.0014
     26 C          68.5642   92.7294    9.2566 C.ar    1  UNL1        0.0000
     27 C          68.4316   94.1672    8.8507 C.ar    1  UNL1        0.0000
     28 C          67.4156   95.0448    9.5198 C.ar    1  UNL1        0.0000
     29 C          66.5323   94.4846   10.5948 C.ar    1  UNL1        0.0014
@<TRIPOS>BOND
     1    16    17    2
     2    17    10    1
     3    10    11   ar
     4    11    12   ar
     5    12    13   ar
     6    13    14   ar
     7    14    15   ar
     8    15     1    1
     9     1     2    1
    10     2     3    1
    11     3     4   ar
    12     4     5   ar
    13     5     6   ar
    14     6     7   ar
    15     7    24    1
    16    24    25   ar
    17    25    26   ar
    18    26    27   ar
    19    27    28   ar
    20    28    29   ar
    21     4     8    1
    22     8     9    2
    23    17    18   am
    24    18    19    1
    25    19    20    1
    26    20    21    1
    27    21    22    1
    28    22    23    1
    29    15    10   ar
    30     8     1   am
    31    23    18    1
    32     7     3   ar
    33    29    24   ar
@<TRIPOS>MOLECULE
*****
 29 33 0 0 0
SMALL
GASTEIGER

@<TRIPOS>ATOM
      1 N          60.2826   94.2332    0.0918 N.am    1  UNL1       -0.2334
      2 C          59.4971   93.5486   -0.9874 C.3     1  UNL1        0.2104
      3 N          58.3778   94.4601   -1.3953 N.ar    1  UNL1       -0.3057
      4 C          58.4715   95.7081   -0.5684 C.ar    1  UNL1        0.1158
      5 C          57.3522   96.6196   -0.9764 C.ar    1  UNL1        0.0234
      6 C          56.5669   95.9349   -2.0555 C.ar    1  UNL1        0.0189
      7 C          57.2007   94.6003   -2.3144 C.ar    1  UNL1        0.0614
      8 C          59.6486   95.5679    0.3506 C.2     1  UNL1        0.2701
      9 O          60.1108   96.5839    1.3527 O.2     1  UNL1       -0.2679
     10 C          62.8618   94.1336    0.3869 C.ar    1  UNL1        0.0673
     11 C          64.0692   93.5808    1.0846 C.ar    1  UNL1        0.0058
     12 C          63.9044   92.5746    2.1847 C.ar    1  UNL1        0.0002
     13 C          62.5323   92.1212    2.5873 C.ar    1  UNL1        0.0013
     14 C          61.3251   92.6741    1.8896 C.ar    1  UNL1        0.0151
     15 C          61.4898   93.6804    0.7894 C.ar    1  UNL1        0.0603
     16 O          62.9929   96.6063   -0.3997 O.2     1  UNL1       -0.2699
     17 C          63.0266   95.1398   -0.7133 C.2     1  UNL1        0.2502
     18 N          63.2250   94.6796   -2.1271 N.am    1  UNL1       -0.2760
     19 C          63.3898   95.6859   -3.2272 C.3     1  UNL1        0.0937
     20 C          63.5882   95.2256   -4.6411 C.3     1  UNL1        0.0216
     21 C          63.6218   93.7591   -4.9547 C.3     1  UNL1        0.0035
     22 C          63.4571   92.7529   -3.8545 C.3     1  UNL1        0.0216
     23 C          63.2587   93.2132   -2.4407 C.3     1  UNL1        0.0937
     24 C          56.7385   93.5843   -3.3164 C.ar    1  UNL1        0.0158
     25 C          56.4750   93.9956   -4.7346 C.ar    1  UNL1        0.0014
     26 C          56.0128   92.9796   -5.7368 C.ar    1  UNL1        0.0000
     27 C          55.8142   91.5523   -5.3206 C.ar    1  UNL1        0.0000
     28 C          56.0777   91.1410   -3.9024 C.ar    1  UNL1        0.0000
     29 C          56.5399   92.1569   -2.9003 C.ar    1  UNL1        0.0014
@<TRIPOS>BOND
     1    16    17    2
     2    17    10    1
     3    10    11   ar
     4    11    12   ar
     5    12    13   ar
     6    13    14   ar
     7    14    15   ar
     8    15     1    1
     9     1     2    1
    10     2     3    1
    11     3     4   ar
    12     4     5   ar
    13     5     6   ar
    14     6     7   ar
    15     7    24    1
    16    24    25   ar
    17    25    26   ar
    18    26    27   ar
    19    27    28   ar
    20    28    29   ar
    21     4     8    1
    22     8     9    2
    23    17    18   am
    24    18    19    1
    25    19    20    1
    26    20    21    1
    27    21    22    1
    28    22    23    1
    29    15    10   ar
    30     8     1   am
    31    23    18    1
    32     7     3   ar
    33    29    24   ar
@<TRIPOS>MOLECULE
*****
 29 33 0 0 0
SMALL
GASTEIGER

@<TRIPOS>ATOM
      1 N          62.8435   83.5965   11.6150 N.am    1  UNL1       -0.2334
      2 C          62.1422   84.9107   11.7919 C.3     1  UNL1        0.2104
      3 N          62.3157   85.7023   10.5296 N.ar    1  UNL1       -0.3057
      4 C          63.1241   84.8774    9.5725 C.ar    1  UNL1        0.1158
      5 C          63.2976   85.6689    8.3102 C.ar    1  UNL1        0.0234
      6 C          62.5964   86.9830    8.4872 C.ar    1  UNL1        0.0189
      7 C          61.9895   87.0037    9.8588 C.ar    1  UNL1        0.0614
      8 C          63.4503   83.5760   10.2433 C.2     1  UNL1        0.2701
      9 O          64.2440   82.4514    9.6472 O.2     1  UNL1       -0.2679
     10 C          63.6594   82.7174   13.9195 C.ar    1  UNL1        0.0673
     11 C          63.7397   81.6171   14.9359 C.ar    1  UNL1        0.0058
     12 C          63.0843   80.2956   14.6638 C.ar    1  UNL1        0.0002
     13 C          62.3486   80.0744   13.3754 C.ar    1  UNL1        0.0013
     14 C          62.2683   81.1747   12.3592 C.ar    1  UNL1        0.0151
     15 C          62.9237   82.4963   12.6312 C.ar    1  UNL1        0.0603
     16 O          65.5839   84.4070   13.4817 O.2     1  UNL1       -0.2699
     17 C          64.3148   84.0389   14.1916 C.2     1  UNL1        0.2502
     18 N          63.7012   84.9924   15.1737 N.am    1  UNL1       -0.2760
     19 C          64.3567   86.3139   15.4457 C.3     1  UNL1        0.0937
     20 C          63.7430   87.2674   16.4277 C.3     1  UNL1        0.0216
     21 C          62.4740   86.8994   17.1377 C.3     1  UNL1        0.0035
     22 C          61.8185   85.5779   16.8656 C.3     1  UNL1        0.0216
     23 C          62.4322   84.6244   15.8836 C.3     1  UNL1        0.0937
     24 C          61.1959   88.1283   10.4549 C.ar    1  UNL1        0.0158
     25 C          59.9691   87.8329   11.2659 C.ar    1  UNL1        0.0014
     26 C          59.1754   88.9575   11.8621 C.ar    1  UNL1        0.0000
     27 C          59.6084   90.3774   11.6472 C.ar    1  UNL1        0.0000
     28 C          60.8353   90.6727   10.8361 C.ar    1  UNL1        0.0000
     29 C          61.6289   89.5482   10.2400 C.ar    1  UNL1        0.0014
@<TRIPOS>BOND
     1    16    17    2
     2    17    10    1
     3    10    11   ar
     4    11    12   ar
     5    12    13   ar
     6    13    14   ar
     7    14    15   ar
     8    15     1    1
     9     1     2    1
    10     2     3    1
    11     3     4   ar
    12     4     5   ar
    13     5     6   ar
    14     6     7   ar
    15     7    24    1
    16    24    25   ar
    17    25    26   ar
    18    26    27   ar
    19    27    28   ar
    20    28    29   ar
    21     4     8    1
    22     8     9    2
    23    17    18   am
    24    18    19    1
    25    19    20    1
    26    20    21    1
    27    21    22    1
    28    22    23    1
    29    15    10   ar
    30     8     1   am
    31    23    18    1
    32     7     3   ar
    33    29    24   ar
