@<TRIPOS>MOLECULE
*****
 30 33 0 0 0
SMALL
GASTEIGER

@<TRIPOS>ATOM
      1 C          62.5819   86.6816   18.6408 C.3     1  UNL1        0.0518
      2 C          62.9872   87.1414   17.2716 C.ar    1  UNL1        0.0568
      3 N          63.2567   88.5950   17.0179 N.ar    1  UNL1       -0.2456
      4 C          63.6619   89.0549   15.6489 C.ar    1  UNL1        0.1322
      5 C          63.7976   88.0611   14.5335 C.ar    1  UNL1        0.0200
      6 C          63.5282   86.6075   14.7872 C.ar    1  UNL1       -0.0015
      7 C          63.1229   86.1477   16.1564 C.ar    1  UNL1        0.0068
      8 C          64.2101   88.8046   13.2978 C.3     1  UNL1        0.1267
      9 N          64.3292   90.2579   13.6494 N.am    1  UNL1       -0.2496
     10 C          63.9904   90.4126   15.1024 C.2     1  UNL1        0.2705
     11 O          63.9817   91.6992   15.8736 O.2     1  UNL1       -0.2679
     12 C          63.6639   85.6136   13.6719 C.ar    1  UNL1        0.0102
     13 C          62.6547   85.5890   12.5624 C.ar    1  UNL1        0.0017
     14 C          62.7903   84.5952   11.4471 C.ar    1  UNL1        0.0114
     15 C          63.9352   83.6261   11.4413 C.ar    1  UNL1        0.0585
     16 CL         64.0708   82.6323   10.3260 Cl      1  UNL1       -0.0822
     17 C          64.9444   83.6507   12.5508 C.ar    1  UNL1        0.0228
     18 C          64.8087   84.6445   13.6661 C.ar    1  UNL1        0.0585
     19 CL         65.8179   84.6692   14.7755 Cl      1  UNL1       -0.0822
     20 C          64.7188   91.3627   12.7125 C.ar    1  UNL1        0.0546
     21 C          65.7338   92.3826   13.1363 C.ar    1  UNL1        0.0172
     22 C          66.1233   93.4873   12.1993 C.ar    1  UNL1        0.0309
     23 C          65.4978   93.5722   10.8386 C.ar    1  UNL1        0.1402
     24 F          65.8874   94.6769    9.9017 F       1  UNL1       -0.2042
     25 C          64.4829   92.5523   10.4148 C.ar    1  UNL1        0.0309
     26 C          64.0934   91.4476   11.3518 C.ar    1  UNL1        0.0172
     27 C          62.8534   84.6940   16.4101 C.3     1  UNL1        0.0934
     28 N          61.8761   83.9509   15.5484 N.3     1  UNL1       -0.3174
     29 H          60.9392   84.3263   15.6953 H       1  UNL1        0.1192
     30 H          61.8885   82.9614   15.7958 H       1  UNL1        0.1192
@<TRIPOS>BOND
     1     1     2    1
     2     2     3   ar
     3     3     4   ar
     4     4     5   ar
     5     5     6   ar
     6     6    12    1
     7    12    13   ar
     8    13    14   ar
     9    14    15   ar
    10    15    16    1
    11    15    17   ar
    12    17    18   ar
    13    18    19    1
    14     6     7   ar
    15     7    27    1
    16    27    28    1
    17     5     8    1
    18     8     9    1
    19     9    20    1
    20    20    21   ar
    21    21    22   ar
    22    22    23   ar
    23    23    24    1
    24    23    25   ar
    25    25    26   ar
    26     9    10   am
    27    10    11    2
    28     7     2   ar
    29    26    20   ar
    30    10     4    1
    31    18    12   ar
    32    28    29    1
    33    28    30    1
@<TRIPOS>MOLECULE
*****
 30 33 0 0 0
SMALL
GASTEIGER

@<TRIPOS>ATOM
      1 C          65.1829   86.2934   15.5952 C.3     1  UNL1        0.0518
      2 C          64.3822   86.0850   14.3440 C.ar    1  UNL1        0.0568
      3 N          63.7307   87.2543   13.6671 N.ar    1  UNL1       -0.2456
      4 C          62.9300   87.0459   12.4160 C.ar    1  UNL1        0.1322
      5 C          62.7808   85.6682   11.8417 C.ar    1  UNL1        0.0200
      6 C          63.4323   84.4989   12.5186 C.ar    1  UNL1       -0.0015
      7 C          64.2330   84.7074   13.7698 C.ar    1  UNL1        0.0068
      8 C          61.9373   85.7701   10.6055 C.3     1  UNL1        0.1267
      9 N          61.5651   87.2108   10.4158 N.am    1  UNL1       -0.2496
     10 C          62.1786   87.9993   11.5347 C.2     1  UNL1        0.2705
     11 O          62.0614   89.4810   11.7368 O.2     1  UNL1       -0.2679
     12 C          63.2832   83.1212   11.9443 C.ar    1  UNL1        0.0102
     13 C          63.9459   82.7749   10.6440 C.ar    1  UNL1        0.0017
     14 C          63.7968   81.3972   10.0697 C.ar    1  UNL1        0.0114
     15 C          62.9850   80.3659   10.7958 C.ar    1  UNL1        0.0585
     16 CL         62.8359   78.9883   10.2216 Cl      1  UNL1       -0.0822
     17 C          62.3223   80.7122   12.0962 C.ar    1  UNL1        0.0228
     18 C          62.4713   82.0899   12.6704 C.ar    1  UNL1        0.0585
     19 CL         61.8086   82.4362   13.9708 Cl      1  UNL1       -0.0822
     20 C          60.7267   87.7656    9.3026 C.ar    1  UNL1        0.0546
     21 C          59.8656   86.8499    8.4842 C.ar    1  UNL1        0.0172
     22 C          59.0271   87.4048    7.3710 C.ar    1  UNL1        0.0309
     23 C          59.0497   88.8754    7.0763 C.ar    1  UNL1        0.1402
     24 F          58.2113   89.4302    5.9631 F       1  UNL1       -0.2042
     25 C          59.9108   89.7911    7.8948 C.ar    1  UNL1        0.0309
     26 C          60.7493   89.2362    9.0079 C.ar    1  UNL1        0.0172
     27 C          64.8846   83.5380   14.4467 C.3     1  UNL1        0.0934
     28 N          64.3243   83.0086   15.7335 N.3     1  UNL1       -0.3174
     29 H          64.4314   83.7109   16.4654 H       1  UNL1        0.1192
     30 H          64.8257   82.1611   15.9995 H       1  UNL1        0.1192
@<TRIPOS>BOND
     1     1     2    1
     2     2     3   ar
     3     3     4   ar
     4     4     5   ar
     5     5     6   ar
     6     6    12    1
     7    12    13   ar
     8    13    14   ar
     9    14    15   ar
    10    15    16    1
    11    15    17   ar
    12    17    18   ar
    13    18    19    1
    14     6     7   ar
    15     7    27    1
    16    27    28    1
    17     5     8    1
    18     8     9    1
    19     9    20    1
    20    20    21   ar
    21    21    22   ar
    22    22    23   ar
    23    23    24    1
    24    23    25   ar
    25    25    26   ar
    26     9    10   am
    27    10    11    2
    28     7     2   ar
    29    26    20   ar
    30    10     4    1
    31    18    12   ar
    32    28    29    1
    33    28    30    1
@<TRIPOS>MOLECULE
*****
 30 33 0 0 0
SMALL
GASTEIGER

@<TRIPOS>ATOM
      1 C          66.3440   93.4800   13.4088 C.3     1  UNL1        0.0518
      2 C          65.3878   92.3484   13.1730 C.ar    1  UNL1        0.0568
      3 N          64.7665   92.1612   11.8206 N.ar    1  UNL1       -0.2456
      4 C          63.8104   91.0297   11.5848 C.ar    1  UNL1        0.1322
      5 C          63.4756   90.0856   12.7012 C.ar    1  UNL1        0.0200
      6 C          64.0969   90.2728   14.0536 C.ar    1  UNL1       -0.0015
      7 C          65.0531   91.4043   14.2894 C.ar    1  UNL1        0.0068
      8 C          62.5060   89.0697   12.1742 C.3     1  UNL1        0.1267
      9 N          62.2415   89.3860   10.7320 N.am    1  UNL1       -0.2496
     10 C          63.0476   90.5974   10.3677 C.2     1  UNL1        0.2705
     11 O          63.0846   91.2600    9.0225 O.2     1  UNL1       -0.2679
     12 C          63.7622   89.3287   15.1701 C.ar    1  UNL1        0.0102
     13 C          63.1594   89.8525   16.4398 C.ar    1  UNL1        0.0017
     14 C          62.8246   88.9084   17.5564 C.ar    1  UNL1        0.0114
     15 C          63.0927   87.4406   17.4031 C.ar    1  UNL1        0.0585
     16 CL         62.7580   86.4965   18.5197 Cl      1  UNL1       -0.0822
     17 C          63.6956   86.9168   16.1334 C.ar    1  UNL1        0.0228
     18 C          64.0303   87.8608   15.0169 C.ar    1  UNL1        0.0585
     19 CL         64.6331   87.3370   13.7471 Cl      1  UNL1       -0.0822
     20 C          61.3307   88.6246    9.8150 C.ar    1  UNL1        0.0546
     21 C          61.4221   87.1294    9.7389 C.ar    1  UNL1        0.0172
     22 C          60.5113   86.3680    8.8219 C.ar    1  UNL1        0.0309
     23 C          59.5092   87.1019    7.9810 C.ar    1  UNL1        0.1402
     24 F          58.5984   86.3406    7.0640 F       1  UNL1       -0.2042
     25 C          59.4178   88.5972    8.0571 C.ar    1  UNL1        0.0309
     26 C          60.3286   89.3585    8.9741 C.ar    1  UNL1        0.0172
     27 C          65.6745   91.5916   15.6418 C.3     1  UNL1        0.0934
     28 N          65.2403   92.7311   16.5154 N.3     1  UNL1       -0.3174
     29 H          65.5083   93.6141   16.0806 H       1  UNL1        0.1192
     30 H          65.6900   92.6509   17.4273 H       1  UNL1        0.1192
@<TRIPOS>BOND
     1     1     2    1
     2     2     3   ar
     3     3     4   ar
     4     4     5   ar
     5     5     6   ar
     6     6    12    1
     7    12    13   ar
     8    13    14   ar
     9    14    15   ar
    10    15    16    1
    11    15    17   ar
    12    17    18   ar
    13    18    19    1
    14     6     7   ar
    15     7    27    1
    16    27    28    1
    17     5     8    1
    18     8     9    1
    19     9    20    1
    20    20    21   ar
    21    21    22   ar
    22    22    23   ar
    23    23    24    1
    24    23    25   ar
    25    25    26   ar
    26     9    10   am
    27    10    11    2
    28     7     2   ar
    29    26    20   ar
    30    10     4    1
    31    18    12   ar
    32    28    29    1
    33    28    30    1
@<TRIPOS>MOLECULE
*****
 30 33 0 0 0
SMALL
GASTEIGER

@<TRIPOS>ATOM
      1 C          63.7881   90.2696   16.9413 C.3     1  UNL1        0.0518
      2 C          63.9212   90.6896   15.5074 C.ar    1  UNL1        0.0568
      3 N          64.9001   91.7608   15.1275 N.ar    1  UNL1       -0.2456
      4 C          65.0333   92.1808   13.6937 C.ar    1  UNL1        0.1322
      5 C          64.1875   91.5297   12.6397 C.ar    1  UNL1        0.0200
      6 C          63.2085   90.4586   13.0197 C.ar    1  UNL1       -0.0015
      7 C          63.0754   90.0386   14.4536 C.ar    1  UNL1        0.0068
      8 C          64.5367   92.1472   11.3181 C.3     1  UNL1        0.1267
      9 N          65.5984   93.1800   11.5553 N.am    1  UNL1       -0.2496
     10 C          65.9053   93.2008   13.0234 C.2     1  UNL1        0.2705
     11 O          66.9081   94.0860   13.7021 O.2     1  UNL1       -0.2679
     12 C          62.3627   89.8074   11.9658 C.ar    1  UNL1        0.0102
     13 C          61.3455   90.6152   11.2156 C.ar    1  UNL1        0.0017
     14 C          60.4996   89.9642   10.1618 C.ar    1  UNL1        0.0114
     15 C          60.6710   88.5053    9.8582 C.ar    1  UNL1        0.0585
     16 CL         59.8251   87.8542    8.8043 Cl      1  UNL1       -0.0822
     17 C          61.6881   87.6975   10.6083 C.ar    1  UNL1        0.0228
     18 C          62.5340   88.3485   11.6622 C.ar    1  UNL1        0.0585
     19 CL         63.5512   87.5407   12.4124 Cl      1  UNL1       -0.0822
     20 C          66.2404   94.0409   10.5081 C.ar    1  UNL1        0.0546
     21 C          67.2773   93.4608    9.5925 C.ar    1  UNL1        0.0172
     22 C          67.9194   94.3218    8.5454 C.ar    1  UNL1        0.0309
     23 C          67.5246   95.7629    8.4138 C.ar    1  UNL1        0.1402
     24 F          68.1666   96.6238    7.3666 F       1  UNL1       -0.2042
     25 C          66.4877   96.3431    9.3293 C.ar    1  UNL1        0.0309
     26 C          65.8456   95.4820   10.3765 C.ar    1  UNL1        0.0172
     27 C          62.0964   88.9674   14.8335 C.3     1  UNL1        0.0934
     28 N          60.9706   89.2797   15.7742 N.3     1  UNL1       -0.3174
     29 H          61.3486   89.5001   16.6956 H       1  UNL1        0.1192
     30 H          60.3523   88.4715   15.8447 H       1  UNL1        0.1192
@<TRIPOS>BOND
     1     1     2    1
     2     2     3   ar
     3     3     4   ar
     4     4     5   ar
     5     5     6   ar
     6     6    12    1
     7    12    13   ar
     8    13    14   ar
     9    14    15   ar
    10    15    16    1
    11    15    17   ar
    12    17    18   ar
    13    18    19    1
    14     6     7   ar
    15     7    27    1
    16    27    28    1
    17     5     8    1
    18     8     9    1
    19     9    20    1
    20    20    21   ar
    21    21    22   ar
    22    22    23   ar
    23    23    24    1
    24    23    25   ar
    25    25    26   ar
    26     9    10   am
    27    10    11    2
    28     7     2   ar
    29    26    20   ar
    30    10     4    1
    31    18    12   ar
    32    28    29    1
    33    28    30    1
@<TRIPOS>MOLECULE
*****
 30 33 0 0 0
SMALL
GASTEIGER

@<TRIPOS>ATOM
      1 C          63.1178   80.7299   14.2072 C.3     1  UNL1        0.0518
      2 C          63.1467   82.1986   13.9031 C.ar    1  UNL1        0.0568
      3 N          63.5163   83.1794   14.9761 N.ar    1  UNL1       -0.2456
      4 C          63.5452   84.6480   14.6721 C.ar    1  UNL1        0.1322
      5 C          63.2045   85.1357   13.2951 C.ar    1  UNL1        0.0200
      6 C          62.8349   84.1549   12.2221 C.ar    1  UNL1       -0.0015
      7 C          62.8061   82.6862   12.5262 C.ar    1  UNL1        0.0068
      8 C          63.3180   86.6314   13.2918 C.3     1  UNL1        0.1267
      9 N          63.7289   87.0681   14.6667 N.am    1  UNL1       -0.2496
     10 C          63.8693   85.8423   15.5198 C.2     1  UNL1        0.2705
     11 O          64.2644   85.8155   16.9666 O.2     1  UNL1       -0.2679
     12 C          62.4942   84.6425   10.8451 C.ar    1  UNL1        0.0102
     13 C          61.2790   85.4952   10.6308 C.ar    1  UNL1        0.0017
     14 C          60.9382   85.9829    9.2538 C.ar    1  UNL1        0.0114
     15 C          61.8127   85.6178    8.0912 C.ar    1  UNL1        0.0585
     16 CL         61.4720   86.1055    6.7142 Cl      1  UNL1       -0.0822
     17 C          63.0280   84.7650    8.3055 C.ar    1  UNL1        0.0228
     18 C          63.3688   84.2774    9.6824 C.ar    1  UNL1        0.0585
     19 CL         64.5841   83.4246    9.8967 Cl      1  UNL1       -0.0822
     20 C          63.9589   88.4823   15.1107 C.ar    1  UNL1        0.0546
     21 C          64.8542   89.3828   14.3123 C.ar    1  UNL1        0.0172
     22 C          65.0842   90.7970   14.7564 C.ar    1  UNL1        0.0309
     23 C          64.4190   91.3107   15.9988 C.ar    1  UNL1        0.1402
     24 F          64.6491   92.7249   16.4428 F       1  UNL1       -0.2042
     25 C          63.5237   90.4102   16.7972 C.ar    1  UNL1        0.0309
     26 C          63.2937   88.9959   16.3531 C.ar    1  UNL1        0.0172
     27 C          62.4365   81.7053   11.4532 C.3     1  UNL1        0.0934
     28 N          63.4787   80.7897   10.8826 N.3     1  UNL1       -0.3174
     29 H          64.1751   81.3392   10.3791 H       1  UNL1        0.1192
     30 H          63.0377   80.1301   10.2417 H       1  UNL1        0.1192
@<TRIPOS>BOND
     1     1     2    1
     2     2     3   ar
     3     3     4   ar
     4     4     5   ar
     5     5     6   ar
     6     6    12    1
     7    12    13   ar
     8    13    14   ar
     9    14    15   ar
    10    15    16    1
    11    15    17   ar
    12    17    18   ar
    13    18    19    1
    14     6     7   ar
    15     7    27    1
    16    27    28    1
    17     5     8    1
    18     8     9    1
    19     9    20    1
    20    20    21   ar
    21    21    22   ar
    22    22    23   ar
    23    23    24    1
    24    23    25   ar
    25    25    26   ar
    26     9    10   am
    27    10    11    2
    28     7     2   ar
    29    26    20   ar
    30    10     4    1
    31    18    12   ar
    32    28    29    1
    33    28    30    1
@<TRIPOS>MOLECULE
*****
 30 33 0 0 0
SMALL
GASTEIGER

@<TRIPOS>ATOM
      1 C          46.0288   79.5874   22.4387 C.3     1  UNL1        0.0518
      2 C          45.8564   78.8499   21.1439 C.ar    1  UNL1        0.0568
      3 N          45.9043   77.3508   21.1226 N.ar    1  UNL1       -0.2456
      4 C          45.7319   76.6132   19.8279 C.ar    1  UNL1        0.1322
      5 C          45.5114   77.3747   18.5545 C.ar    1  UNL1        0.0200
      6 C          45.4634   78.8738   18.5758 C.ar    1  UNL1       -0.0015
      7 C          45.6359   79.6113   19.8706 C.ar    1  UNL1        0.0068
      8 C          45.3749   76.3820   17.4384 C.3     1  UNL1        0.1267
      9 N          45.5110   75.0069   18.0220 N.am    1  UNL1       -0.2496
     10 C          45.7316   75.1498   19.4988 C.2     1  UNL1        0.2705
     11 O          45.9191   74.0265   20.4750 O.2     1  UNL1       -0.2679
     12 C          45.2430   79.6354   17.3025 C.ar    1  UNL1        0.0102
     13 C          43.8556   79.7964   16.7555 C.ar    1  UNL1        0.0017
     14 C          43.6350   80.5580   15.4822 C.ar    1  UNL1        0.0114
     15 C          44.8020   81.1585   14.7559 C.ar    1  UNL1        0.0585
     16 CL         44.5814   81.9201   13.4825 Cl      1  UNL1       -0.0822
     17 C          46.1894   80.9975   15.3028 C.ar    1  UNL1        0.0228
     18 C          46.4099   80.2359   16.5761 C.ar    1  UNL1        0.0585
     19 CL         47.7973   80.0749   17.1231 Cl      1  UNL1       -0.0822
     20 C          45.4392   73.7155   17.2622 C.ar    1  UNL1        0.0546
     21 C          45.6722   72.4143   17.9711 C.ar    1  UNL1        0.0172
     22 C          45.6003   71.1230   17.2112 C.ar    1  UNL1        0.0309
     23 C          45.2954   71.1329   15.7425 C.ar    1  UNL1        0.1402
     24 F          45.2235   69.8415   14.9827 F       1  UNL1       -0.2042
     25 C          45.0624   72.4341   15.0337 C.ar    1  UNL1        0.0309
     26 C          45.1343   73.7254   15.7936 C.ar    1  UNL1        0.0172
     27 C          45.5879   81.1105   19.8919 C.3     1  UNL1        0.0934
     28 N          46.8593   81.9002   19.9913 N.3     1  UNL1       -0.3174
     29 H          47.2951   81.7305   20.8978 H       1  UNL1        0.1192
     30 H          46.6507   82.8940   19.8951 H       1  UNL1        0.1192
@<TRIPOS>BOND
     1     1     2    1
     2     2     3   ar
     3     3     4   ar
     4     4     5   ar
     5     5     6   ar
     6     6    12    1
     7    12    13   ar
     8    13    14   ar
     9    14    15   ar
    10    15    16    1
    11    15    17   ar
    12    17    18   ar
    13    18    19    1
    14     6     7   ar
    15     7    27    1
    16    27    28    1
    17     5     8    1
    18     8     9    1
    19     9    20    1
    20    20    21   ar
    21    21    22   ar
    22    22    23   ar
    23    23    24    1
    24    23    25   ar
    25    25    26   ar
    26     9    10   am
    27    10    11    2
    28     7     2   ar
    29    26    20   ar
    30    10     4    1
    31    18    12   ar
    32    28    29    1
    33    28    30    1
@<TRIPOS>MOLECULE
*****
 30 33 0 0 0
SMALL
GASTEIGER

@<TRIPOS>ATOM
      1 C          56.2702   94.0631   -3.7126 C.3     1  UNL1        0.0518
      2 C          57.7653   94.0451   -3.5912 C.ar    1  UNL1        0.0568
      3 N          58.6184   94.3575   -4.7847 N.ar    1  UNL1       -0.2456
      4 C          60.1134   94.3396   -4.6633 C.ar    1  UNL1        0.1322
      5 C          60.7552   94.0092   -3.3485 C.ar    1  UNL1        0.0200
      6 C          59.9021   93.6967   -2.1549 C.ar    1  UNL1       -0.0015
      7 C          58.4070   93.7147   -2.2764 C.ar    1  UNL1        0.0068
      8 C          62.2429   94.0687   -3.5308 C.3     1  UNL1        0.1267
      9 N          62.5205   94.4360   -4.9584 N.am    1  UNL1       -0.2496
     10 C          61.2044   94.6034   -5.6584 C.2     1  UNL1        0.2705
     11 O          61.0130   94.9701   -7.1002 O.2     1  UNL1       -0.2679
     12 C          60.5438   93.3663   -0.8400 C.ar    1  UNL1        0.0102
     13 C          60.7744   91.9345   -0.4568 C.ar    1  UNL1        0.0017
     14 C          61.4161   91.6040    0.8581 C.ar    1  UNL1        0.0114
     15 C          61.8272   92.7053    1.7897 C.ar    1  UNL1        0.0585
     16 CL         62.4689   92.3748    3.1046 Cl      1  UNL1       -0.0822
     17 C          61.5966   94.1371    1.4066 C.ar    1  UNL1        0.0228
     18 C          60.9549   94.4676    0.0917 C.ar    1  UNL1        0.0585
     19 CL         60.7243   95.8994   -0.2915 Cl      1  UNL1       -0.0822
     20 C          63.8762   94.6060   -5.5774 C.ar    1  UNL1        0.0546
     21 C          64.6430   95.8777   -5.3661 C.ar    1  UNL1        0.0172
     22 C          65.9988   96.0477   -5.9852 C.ar    1  UNL1        0.0309
     23 C          66.5876   94.9460   -6.8155 C.ar    1  UNL1        0.1402
     24 F          67.9433   95.1160   -7.4345 F       1  UNL1       -0.2042
     25 C          65.8208   93.6742   -7.0268 C.ar    1  UNL1        0.0309
     26 C          64.4651   93.5043   -6.4077 C.ar    1  UNL1        0.0172
     27 C          57.5538   93.4022   -1.0828 C.3     1  UNL1        0.0934
     28 N          57.1361   91.9878   -0.8091 N.3     1  UNL1       -0.3174
     29 H          56.5148   91.6670   -1.5517 H       1  UNL1        0.1192
     30 H          56.6476   91.9446    0.0853 H       1  UNL1        0.1192
@<TRIPOS>BOND
     1     1     2    1
     2     2     3   ar
     3     3     4   ar
     4     4     5   ar
     5     5     6   ar
     6     6    12    1
     7    12    13   ar
     8    13    14   ar
     9    14    15   ar
    10    15    16    1
    11    15    17   ar
    12    17    18   ar
    13    18    19    1
    14     6     7   ar
    15     7    27    1
    16    27    28    1
    17     5     8    1
    18     8     9    1
    19     9    20    1
    20    20    21   ar
    21    21    22   ar
    22    22    23   ar
    23    23    24    1
    24    23    25   ar
    25    25    26   ar
    26     9    10   am
    27    10    11    2
    28     7     2   ar
    29    26    20   ar
    30    10     4    1
    31    18    12   ar
    32    28    29    1
    33    28    30    1
@<TRIPOS>MOLECULE
*****
 30 33 0 0 0
SMALL
GASTEIGER

@<TRIPOS>ATOM
      1 C          63.5225   85.0648   15.6060 C.3     1  UNL1        0.0518
      2 C          63.5250   86.1805   14.6032 C.ar    1  UNL1        0.0568
      3 N          64.2768   87.4460   14.8914 N.ar    1  UNL1       -0.2456
      4 C          64.2794   88.5617   13.8887 C.ar    1  UNL1        0.1322
      5 C          63.5300   88.4118   12.5979 C.ar    1  UNL1        0.0200
      6 C          62.7782   87.1462   12.3098 C.ar    1  UNL1       -0.0015
      7 C          62.7757   86.0305   13.3126 C.ar    1  UNL1        0.0068
      8 C          63.7127   89.6729   11.8067 C.3     1  UNL1        0.1267
      9 N          64.5749   90.6023   12.6084 N.am    1  UNL1       -0.2496
     10 C          64.9252   89.9155   13.8952 C.2     1  UNL1        0.2705
     11 O          65.7724   90.4830   14.9952 O.2     1  UNL1       -0.2679
     12 C          62.0288   86.9962   11.0191 C.ar    1  UNL1        0.0102
     13 C          62.5933   86.1477    9.9184 C.ar    1  UNL1        0.0017
     14 C          61.8440   85.9977    8.6277 C.ar    1  UNL1        0.0114
     15 C          60.5303   86.6961    8.4377 C.ar    1  UNL1        0.0585
     16 CL         59.7810   86.5460    7.1469 Cl      1  UNL1       -0.0822
     17 C          59.9657   87.5445    9.5383 C.ar    1  UNL1        0.0228
     18 C          60.7150   87.6946   10.8291 C.ar    1  UNL1        0.0585
     19 CL         60.1505   88.5430   11.9297 Cl      1  UNL1       -0.0822
     20 C          65.0105   91.9771   12.1959 C.ar    1  UNL1        0.0546
     21 C          64.7000   92.4801   10.8173 C.ar    1  UNL1        0.0172
     22 C          65.1356   93.8549   10.4048 C.ar    1  UNL1        0.0309
     23 C          65.8816   94.7268   11.3709 C.ar    1  UNL1        0.1402
     24 F          66.3172   96.1016   10.9583 F       1  UNL1       -0.2042
     25 C          66.1921   94.2238   12.7495 C.ar    1  UNL1        0.0309
     26 C          65.7565   92.8489   13.1620 C.ar    1  UNL1        0.0172
     27 C          62.0238   84.7649   13.0245 C.3     1  UNL1        0.0934
     28 N          62.7470   83.5717   12.4738 N.3     1  UNL1       -0.3174
     29 H          63.0890   83.7841   11.5366 H       1  UNL1        0.1192
     30 H          62.1087   82.7772   12.4308 H       1  UNL1        0.1192
@<TRIPOS>BOND
     1     1     2    1
     2     2     3   ar
     3     3     4   ar
     4     4     5   ar
     5     5     6   ar
     6     6    12    1
     7    12    13   ar
     8    13    14   ar
     9    14    15   ar
    10    15    16    1
    11    15    17   ar
    12    17    18   ar
    13    18    19    1
    14     6     7   ar
    15     7    27    1
    16    27    28    1
    17     5     8    1
    18     8     9    1
    19     9    20    1
    20    20    21   ar
    21    21    22   ar
    22    22    23   ar
    23    23    24    1
    24    23    25   ar
    25    25    26   ar
    26     9    10   am
    27    10    11    2
    28     7     2   ar
    29    26    20   ar
    30    10     4    1
    31    18    12   ar
    32    28    29    1
    33    28    30    1
@<TRIPOS>MOLECULE
*****
 30 33 0 0 0
SMALL
GASTEIGER

@<TRIPOS>ATOM
      1 C          62.4016   82.4912   15.1466 C.3     1  UNL1        0.0518
      2 C          62.6772   83.7410   14.3641 C.ar    1  UNL1        0.0568
      3 N          63.1785   84.9690   15.0645 N.ar    1  UNL1       -0.2456
      4 C          63.4541   86.2188   14.2821 C.ar    1  UNL1        0.1322
      5 C          63.2285   86.2404   12.7993 C.ar    1  UNL1        0.0200
      6 C          62.7273   85.0123   12.0989 C.ar    1  UNL1       -0.0015
      7 C          62.4517   83.7626   12.8814 C.ar    1  UNL1        0.0068
      8 C          63.5854   87.6076   12.2960 C.3     1  UNL1        0.1267
      9 N          64.0315   88.4310   13.4677 N.am    1  UNL1       -0.2496
     10 C          63.9504   87.5727   14.6952 C.2     1  UNL1        0.2705
     11 O          64.3036   87.9942   16.0908 O.2     1  UNL1       -0.2679
     12 C          62.5017   85.0339   10.6161 C.ar    1  UNL1        0.0102
     13 C          61.3555   85.8135   10.0432 C.ar    1  UNL1        0.0017
     14 C          61.1298   85.8351    8.5604 C.ar    1  UNL1        0.0114
     15 C          62.0504   85.0770    7.6506 C.ar    1  UNL1        0.0585
     16 CL         61.8247   85.0986    6.1679 Cl      1  UNL1       -0.0822
     17 C          63.1966   84.2973    8.2235 C.ar    1  UNL1        0.0228
     18 C          63.4223   84.2757    9.7063 C.ar    1  UNL1        0.0585
     19 CL         64.5685   83.4961   10.2792 Cl      1  UNL1       -0.0822
     20 C          64.4801   89.8616   13.4204 C.ar    1  UNL1        0.0546
     21 C          64.0634   90.7408   12.2788 C.ar    1  UNL1        0.0172
     22 C          64.5120   92.1714   12.2315 C.ar    1  UNL1        0.0309
     23 C          65.3772   92.7228   13.3257 C.ar    1  UNL1        0.1402
     24 F          65.8257   94.1534   13.2784 F       1  UNL1       -0.2042
     25 C          65.7939   91.8435   14.4674 C.ar    1  UNL1        0.0309
     26 C          65.3453   90.4129   14.5146 C.ar    1  UNL1        0.0172
     27 C          61.9504   82.5344   12.1810 C.3     1  UNL1        0.0934
     28 N          62.8581   81.3551   11.9930 N.3     1  UNL1       -0.3174
     29 H          63.6211   81.6099   11.3657 H       1  UNL1        0.1192
     30 H          62.3306   80.5809   11.5897 H       1  UNL1        0.1192
@<TRIPOS>BOND
     1     1     2    1
     2     2     3   ar
     3     3     4   ar
     4     4     5   ar
     5     5     6   ar
     6     6    12    1
     7    12    13   ar
     8    13    14   ar
     9    14    15   ar
    10    15    16    1
    11    15    17   ar
    12    17    18   ar
    13    18    19    1
    14     6     7   ar
    15     7    27    1
    16    27    28    1
    17     5     8    1
    18     8     9    1
    19     9    20    1
    20    20    21   ar
    21    21    22   ar
    22    22    23   ar
    23    23    24    1
    24    23    25   ar
    25    25    26   ar
    26     9    10   am
    27    10    11    2
    28     7     2   ar
    29    26    20   ar
    30    10     4    1
    31    18    12   ar
    32    28    29    1
    33    28    30    1
