@<TRIPOS>MOLECULE
*****
 33 37 0 0 0
SMALL
GASTEIGER

@<TRIPOS>ATOM
      1 C          63.0153   86.3295   12.4955 C.2     1  UNL1        0.2506
      2 O          63.5532   87.2202   13.5760 O.2     1  UNL1       -0.2699
      3 N          62.2032   86.9131   11.3775 N.am    1  UNL1       -0.2723
      4 C          61.6654   86.0225   10.2970 C.3     1  UNL1        0.1257
      5 C          60.8533   86.6061    9.1790 C.3     1  UNL1        0.1637
      6 O          60.5791   88.0804    9.1415 O.3     1  UNL1       -0.3502
      7 C          61.1169   88.9710   10.2220 C.3     1  UNL1        0.1622
      8 C          61.9290   88.3874   11.3400 C.3     1  UNL1        0.1096
      9 C          64.0473   81.8798   10.0186 C.3     1  UNL1        0.0310
     10 C          63.8055   82.6304   11.2946 C.ar    1  UNL1       -0.0216
     11 C          63.8380   81.9068   12.6080 C.ar    1  UNL1       -0.0026
     12 C          63.5962   82.6574   13.8840 C.ar    1  UNL1        0.0207
     13 C          63.3220   84.1316   13.8465 C.ar    1  UNL1        0.1072
     14 C          63.2895   84.8553   12.5330 C.ar    1  UNL1        0.0726
     15 C          63.5313   84.1047   11.2571 C.ar    1  UNL1        0.0018
     16 N          63.0802   84.8822   15.1225 N.ar    1  UNL1       -0.1477
     17 N          61.7541   85.0681   15.7984 N.ar    1  UNL1       -0.1447
     18 C          61.9763   85.8795   17.0403 C.ar    1  UNL1        0.1446
     19 C          63.4399   86.1951   17.1319 C.ar    1  UNL1        0.1446
     20 N          64.1221   85.5788   15.9467 N.ar    1  UNL1       -0.1447
     21 C          62.4669   89.2781   12.4205 C.3     1  UNL1        0.0487
     22 C          63.4672   90.3442   12.0849 C.ar    1  UNL1       -0.0204
     23 C          63.4266   91.0154   10.7441 C.ar    1  UNL1       -0.0042
     24 C          64.4270   92.0816   10.4085 C.ar    1  UNL1       -0.0003
     25 C          65.4680   92.4764   11.4137 C.ar    1  UNL1        0.0015
     26 C          65.5086   91.8051   12.7545 C.ar    1  UNL1        0.0191
     27 C          64.5082   90.7390   13.0901 C.ar    1  UNL1       -0.0027
     28 C          66.5496   92.1999   13.7597 C.ar    1  UNL1        0.1029
     29 C          66.1535   92.4799   15.1792 C.ar    1  UNL1        0.0226
     30 C          67.1945   92.8747   16.1844 C.ar    1  UNL1        0.0241
     31 C          68.6316   92.9896   15.7701 C.ar    1  UNL1        0.1222
     32 N          69.0277   92.7097   14.3507 N.ar    1  UNL1       -0.1464
     33 N          67.9867   92.3148   13.3455 N.ar    1  UNL1       -0.1480
@<TRIPOS>BOND
     1     9    10    1
     2    10    11   ar
     3    11    12   ar
     4    12    13   ar
     5    13    16    1
     6    16    17   ar
     7    17    18   ar
     8    18    19   ar
     9    19    20   ar
    10    13    14   ar
    11    14     1    1
    12     1     2    2
    13     1     3   am
    14     3     4    1
    15     4     5    1
    16     5     6    1
    17     6     7    1
    18     7     8    1
    19     8    21    1
    20    21    22    1
    21    22    23   ar
    22    23    24   ar
    23    24    25   ar
    24    25    26   ar
    25    26    28    1
    26    28    29   ar
    27    29    30   ar
    28    30    31   ar
    29    31    32   ar
    30    32    33   ar
    31    26    27   ar
    32    14    15   ar
    33    15    10   ar
    34    20    16   ar
    35     8     3    1
    36    27    22   ar
    37    33    28   ar
@<TRIPOS>MOLECULE
*****
 33 37 0 0 0
SMALL
GASTEIGER

@<TRIPOS>ATOM
      1 C          62.6460   88.4939   11.5615 C.2     1  UNL1        0.2506
      2 O          62.6217   89.9937   11.5600 O.2     1  UNL1       -0.2699
      3 N          63.3027   87.7556   12.6900 N.am    1  UNL1       -0.2723
      4 C          63.3269   86.2558   12.6915 C.3     1  UNL1        0.1257
      5 C          63.9837   85.5174   13.8200 C.3     1  UNL1        0.1637
      6 O          64.6161   86.2789   14.9470 O.3     1  UNL1       -0.3502
      7 C          64.5919   87.7787   14.9455 C.3     1  UNL1        0.1622
      8 C          63.9352   88.5170   13.8171 C.3     1  UNL1        0.1096
      9 C          62.9916   84.9676    7.7608 C.3     1  UNL1        0.0310
     10 C          62.1863   85.9693    8.5341 C.ar    1  UNL1       -0.0216
     11 C          60.7486   86.2096    8.1804 C.ar    1  UNL1       -0.0026
     12 C          59.9433   87.2114    8.9537 C.ar    1  UNL1        0.0207
     13 C          60.5757   87.9728   10.0807 C.ar    1  UNL1        0.1072
     14 C          62.0134   87.7325   10.4344 C.ar    1  UNL1        0.0726
     15 C          62.8187   86.7307    9.6611 C.ar    1  UNL1        0.0018
     16 N          59.7704   88.9746   10.8540 N.ar    1  UNL1       -0.1477
     17 N          59.0197   88.7099   12.1254 N.ar    1  UNL1       -0.1447
     18 C          58.3597   89.9886   12.5489 C.ar    1  UNL1        0.1446
     19 C          58.7027   91.0437   11.5393 C.ar    1  UNL1        0.1446
     20 N          59.5745   90.4169   10.4918 N.ar    1  UNL1       -0.1447
     21 C          63.9109   90.0168   13.8156 C.3     1  UNL1        0.0487
     22 C          65.1957   90.7876   13.7439 C.ar    1  UNL1       -0.0204
     23 C          66.1314   90.7964   14.9163 C.ar    1  UNL1       -0.0042
     24 C          67.4162   91.5672   14.8447 C.ar    1  UNL1       -0.0003
     25 C          67.7653   92.3293   13.6007 C.ar    1  UNL1        0.0015
     26 C          66.8296   92.3205   12.4284 C.ar    1  UNL1        0.0191
     27 C          65.5448   91.5497   12.5000 C.ar    1  UNL1       -0.0027
     28 C          67.1787   93.0825   11.1844 C.ar    1  UNL1        0.1029
     29 C          67.8594   92.3853   10.0439 C.ar    1  UNL1        0.0226
     30 C          68.2085   93.1473    8.8000 C.ar    1  UNL1        0.0241
     31 C          67.8769   94.6066    8.6965 C.ar    1  UNL1        0.1222
     32 N          67.1962   95.3037    9.8369 N.ar    1  UNL1       -0.1464
     33 N          66.8471   94.5417   11.0809 N.ar    1  UNL1       -0.1480
@<TRIPOS>BOND
     1     9    10    1
     2    10    11   ar
     3    11    12   ar
     4    12    13   ar
     5    13    16    1
     6    16    17   ar
     7    17    18   ar
     8    18    19   ar
     9    19    20   ar
    10    13    14   ar
    11    14     1    1
    12     1     2    2
    13     1     3   am
    14     3     4    1
    15     4     5    1
    16     5     6    1
    17     6     7    1
    18     7     8    1
    19     8    21    1
    20    21    22    1
    21    22    23   ar
    22    23    24   ar
    23    24    25   ar
    24    25    26   ar
    25    26    28    1
    26    28    29   ar
    27    29    30   ar
    28    30    31   ar
    29    31    32   ar
    30    32    33   ar
    31    26    27   ar
    32    14    15   ar
    33    15    10   ar
    34    20    16   ar
    35     8     3    1
    36    27    22   ar
    37    33    28   ar
@<TRIPOS>MOLECULE
*****
 33 37 0 0 0
SMALL
GASTEIGER

@<TRIPOS>ATOM
      1 C          63.3006   86.9464   13.0733 C.2     1  UNL1        0.2506
      2 O          63.7645   87.6137   14.3340 O.2     1  UNL1       -0.2699
      3 N          62.7556   87.7710   11.9450 N.am    1  UNL1       -0.2723
      4 C          62.2917   87.1036   10.6843 C.3     1  UNL1        0.1257
      5 C          61.7466   87.9283    9.5560 C.3     1  UNL1        0.1637
      6 O          61.6654   89.4202    9.6885 O.3     1  UNL1       -0.3502
      7 C          62.1293   90.0875   10.9493 C.3     1  UNL1        0.1622
      8 C          62.6744   89.2630   12.0775 C.3     1  UNL1        0.1096
      9 C          63.9806   82.7207   10.1269 C.3     1  UNL1        0.0310
     10 C          63.7218   83.3416   11.4676 C.ar    1  UNL1       -0.0216
     11 C          63.5441   82.4706   12.6758 C.ar    1  UNL1       -0.0026
     12 C          63.2854   83.0915   14.0165 C.ar    1  UNL1        0.0207
     13 C          63.2042   84.5834   14.1490 C.ar    1  UNL1        0.1072
     14 C          63.3818   85.4544   12.9408 C.ar    1  UNL1        0.0726
     15 C          63.6406   84.8335   11.6001 C.ar    1  UNL1        0.0018
     16 N          62.9454   85.2043   15.4897 N.ar    1  UNL1       -0.1477
     17 N          63.9877   85.7002   16.4477 N.ar    1  UNL1       -0.1447
     18 C          63.2853   86.2407   17.6579 C.ar    1  UNL1        0.1446
     19 C          61.8089   86.0789   17.4478 C.ar    1  UNL1        0.1446
     20 N          61.5989   85.4384   16.1078 N.ar    1  UNL1       -0.1447
     21 C          63.1383   89.9303   13.3383 C.3     1  UNL1        0.0487
     22 C          64.4228   90.7048   13.3480 C.ar    1  UNL1       -0.0204
     23 C          65.3461   90.6112   14.5264 C.ar    1  UNL1       -0.0042
     24 C          66.6306   91.3857   14.5362 C.ar    1  UNL1       -0.0003
     25 C          66.9919   92.2538   13.3675 C.ar    1  UNL1        0.0015
     26 C          66.0685   92.3474   12.1890 C.ar    1  UNL1        0.0191
     27 C          64.7840   91.5729   12.1793 C.ar    1  UNL1       -0.0027
     28 C          66.4298   93.2156   11.0203 C.ar    1  UNL1        0.1029
     29 C          67.4596   92.7531   10.0325 C.ar    1  UNL1        0.0226
     30 C          67.8208   93.6212    8.8638 C.ar    1  UNL1        0.0241
     31 C          67.1522   94.9518    8.6829 C.ar    1  UNL1        0.1222
     32 N          66.1225   95.4142    9.6707 N.ar    1  UNL1       -0.1464
     33 N          65.7612   94.5460   10.8394 N.ar    1  UNL1       -0.1480
@<TRIPOS>BOND
     1     9    10    1
     2    10    11   ar
     3    11    12   ar
     4    12    13   ar
     5    13    16    1
     6    16    17   ar
     7    17    18   ar
     8    18    19   ar
     9    19    20   ar
    10    13    14   ar
    11    14     1    1
    12     1     2    2
    13     1     3   am
    14     3     4    1
    15     4     5    1
    16     5     6    1
    17     6     7    1
    18     7     8    1
    19     8    21    1
    20    21    22    1
    21    22    23   ar
    22    23    24   ar
    23    24    25   ar
    24    25    26   ar
    25    26    28    1
    26    28    29   ar
    27    29    30   ar
    28    30    31   ar
    29    31    32   ar
    30    32    33   ar
    31    26    27   ar
    32    14    15   ar
    33    15    10   ar
    34    20    16   ar
    35     8     3    1
    36    27    22   ar
    37    33    28   ar
@<TRIPOS>MOLECULE
*****
 33 37 0 0 0
SMALL
GASTEIGER

@<TRIPOS>ATOM
      1 C          62.8174   87.3470   11.8869 C.2     1  UNL1        0.2506
      2 O          63.4556   87.4975   13.2361 O.2     1  UNL1       -0.2699
      3 N          62.0525   88.4895   11.2874 N.am    1  UNL1       -0.2723
      4 C          61.4144   88.3391    9.9383 C.3     1  UNL1        0.1257
      5 C          60.6494   89.4817    9.3388 C.3     1  UNL1        0.1637
      6 O          60.5226   90.7747   10.0885 O.3     1  UNL1       -0.3502
      7 C          61.1607   90.9252   11.4376 C.3     1  UNL1        0.1622
      8 C          61.9257   89.7826   12.0371 C.3     1  UNL1        0.1096
      9 C          62.8698   84.7363    7.3945 C.3     1  UNL1        0.0310
     10 C          62.9705   84.7486    8.8911 C.ar    1  UNL1       -0.0216
     11 C          63.1979   83.4679    9.6380 C.ar    1  UNL1       -0.0026
     12 C          63.2985   83.4802   11.1346 C.ar    1  UNL1        0.0207
     13 C          63.1717   84.7732   11.8842 C.ar    1  UNL1        0.1072
     14 C          62.9443   86.0539   11.1373 C.ar    1  UNL1        0.0726
     15 C          62.8436   86.0416    9.6407 C.ar    1  UNL1        0.0018
     16 N          63.2723   84.7854   13.3808 N.ar    1  UNL1       -0.1477
     17 N          62.1259   84.6813   14.3424 N.ar    1  UNL1       -0.1447
     18 C          62.6821   84.7355   15.7345 C.ar    1  UNL1        0.1446
     19 C          64.1723   84.8731   15.6331 C.ar    1  UNL1        0.1446
     20 N          64.5371   84.9040   14.1785 N.ar    1  UNL1       -0.1447
     21 C          62.5638   89.9331   13.3862 C.3     1  UNL1        0.0487
     22 C          63.8760   90.6473   13.5197 C.ar    1  UNL1       -0.0204
     23 C          64.6280   90.5982   14.8167 C.ar    1  UNL1       -0.0042
     24 C          65.9403   91.3125   14.9503 C.ar    1  UNL1       -0.0003
     25 C          66.5006   92.0758   13.7869 C.ar    1  UNL1        0.0015
     26 C          65.7486   92.1248   12.4899 C.ar    1  UNL1        0.0191
     27 C          64.4363   91.4106   12.3563 C.ar    1  UNL1       -0.0027
     28 C          66.3088   92.8881   11.3265 C.ar    1  UNL1        0.1029
     29 C          65.5874   94.0950   10.8039 C.ar    1  UNL1        0.0226
     30 C          66.1477   94.8582    9.6405 C.ar    1  UNL1        0.0241
     31 C          67.4294   94.4146    8.9997 C.ar    1  UNL1        0.1222
     32 N          68.1507   93.2078    9.5223 N.ar    1  UNL1       -0.1464
     33 N          67.5904   92.4445   10.6857 N.ar    1  UNL1       -0.1480
@<TRIPOS>BOND
     1     9    10    1
     2    10    11   ar
     3    11    12   ar
     4    12    13   ar
     5    13    16    1
     6    16    17   ar
     7    17    18   ar
     8    18    19   ar
     9    19    20   ar
    10    13    14   ar
    11    14     1    1
    12     1     2    2
    13     1     3   am
    14     3     4    1
    15     4     5    1
    16     5     6    1
    17     6     7    1
    18     7     8    1
    19     8    21    1
    20    21    22    1
    21    22    23   ar
    22    23    24   ar
    23    24    25   ar
    24    25    26   ar
    25    26    28    1
    26    28    29   ar
    27    29    30   ar
    28    30    31   ar
    29    31    32   ar
    30    32    33   ar
    31    26    27   ar
    32    14    15   ar
    33    15    10   ar
    34    20    16   ar
    35     8     3    1
    36    27    22   ar
    37    33    28   ar
@<TRIPOS>MOLECULE
*****
 33 37 0 0 0
SMALL
GASTEIGER

@<TRIPOS>ATOM
      1 C          62.4081   84.7487   12.2025 C.2     1  UNL1        0.2506
      2 O          61.8995   85.7974   13.1468 O.2     1  UNL1       -0.2699
      3 N          62.6025   85.0766   10.7518 N.am    1  UNL1       -0.2723
      4 C          63.1111   84.0280    9.8075 C.3     1  UNL1        0.1257
      5 C          63.3056   84.3559    8.3567 C.3     1  UNL1        0.1637
      6 O          62.9915   85.7324    7.8503 O.3     1  UNL1       -0.3502
      7 C          62.4828   86.7810    8.7946 C.3     1  UNL1        0.1622
      8 C          62.2884   86.4532   10.2453 C.3     1  UNL1        0.1096
      9 C          62.7680   79.6289   11.3917 C.3     1  UNL1        0.0310
     10 C          62.9022   80.8123   12.3036 C.ar    1  UNL1       -0.0216
     11 C          63.3505   80.6192   13.7219 C.ar    1  UNL1       -0.0026
     12 C          63.4846   81.8026   14.6338 C.ar    1  UNL1        0.0207
     13 C          63.1705   83.1791   14.1274 C.ar    1  UNL1        0.1072
     14 C          62.7222   83.3722   12.7090 C.ar    1  UNL1        0.0726
     15 C          62.5880   82.1888   11.7971 C.ar    1  UNL1        0.0018
     16 N          63.3047   84.3625   15.0393 N.ar    1  UNL1       -0.1477
     17 N          64.4293   85.3550   15.0360 N.ar    1  UNL1       -0.1447
     18 C          64.1575   86.3671   16.1093 C.ar    1  UNL1        0.1446
     19 C          62.8649   86.0000   16.7758 C.ar    1  UNL1        0.1446
     20 N          62.3378   84.7611   16.1145 N.ar    1  UNL1       -0.1447
     21 C          61.7798   87.5018   11.1896 C.3     1  UNL1        0.0487
     22 C          62.4369   88.8493   11.2386 C.ar    1  UNL1       -0.0204
     23 C          62.5322   89.6828    9.9952 C.ar    1  UNL1       -0.0042
     24 C          63.1893   91.0304   10.0441 C.ar    1  UNL1       -0.0003
     25 C          63.7512   91.5443   11.3364 C.ar    1  UNL1        0.0015
     26 C          63.6559   90.7107   12.5799 C.ar    1  UNL1        0.0191
     27 C          62.9987   89.3632   12.5309 C.ar    1  UNL1       -0.0027
     28 C          64.2177   91.2247   13.8722 C.ar    1  UNL1        0.1029
     29 C          65.6019   91.8014   13.9116 C.ar    1  UNL1        0.0226
     30 C          66.1637   92.3153   15.2040 C.ar    1  UNL1        0.0241
     31 C          65.3414   92.2526   16.4570 C.ar    1  UNL1        0.1222
     32 N          63.9573   91.6759   16.4175 N.ar    1  UNL1       -0.1464
     33 N          63.3954   91.1619   15.1252 N.ar    1  UNL1       -0.1480
@<TRIPOS>BOND
     1     9    10    1
     2    10    11   ar
     3    11    12   ar
     4    12    13   ar
     5    13    16    1
     6    16    17   ar
     7    17    18   ar
     8    18    19   ar
     9    19    20   ar
    10    13    14   ar
    11    14     1    1
    12     1     2    2
    13     1     3   am
    14     3     4    1
    15     4     5    1
    16     5     6    1
    17     6     7    1
    18     7     8    1
    19     8    21    1
    20    21    22    1
    21    22    23   ar
    22    23    24   ar
    23    24    25   ar
    24    25    26   ar
    25    26    28    1
    26    28    29   ar
    27    29    30   ar
    28    30    31   ar
    29    31    32   ar
    30    32    33   ar
    31    26    27   ar
    32    14    15   ar
    33    15    10   ar
    34    20    16   ar
    35     8     3    1
    36    27    22   ar
    37    33    28   ar
@<TRIPOS>MOLECULE
*****
 33 37 0 0 0
SMALL
GASTEIGER

@<TRIPOS>ATOM
      1 C          63.4016   87.8788   13.2514 C.2     1  UNL1        0.2506
      2 O          63.6204   88.9967   12.2755 O.2     1  UNL1       -0.2699
      3 N          63.3366   88.1688   14.7217 N.am    1  UNL1       -0.2723
      4 C          63.1178   87.0509   15.6976 C.3     1  UNL1        0.1257
      5 C          63.0528   87.3409   17.1679 C.3     1  UNL1        0.1637
      6 O          63.2066   88.7487   17.6622 O.3     1  UNL1       -0.3502
      7 C          63.4254   89.8666   16.6863 C.3     1  UNL1        0.1622
      8 C          63.4904   89.5766   15.2160 C.3     1  UNL1        0.1096
      9 C          64.5833   82.8311   13.6045 C.3     1  UNL1        0.0310
     10 C          63.8387   83.9471   12.9336 C.ar    1  UNL1       -0.0216
     11 C          62.9403   83.6553   11.7684 C.ar    1  UNL1       -0.0026
     12 C          62.1957   84.7713   11.0975 C.ar    1  UNL1        0.0207
     13 C          62.3494   86.1791   11.5918 C.ar    1  UNL1        0.1072
     14 C          63.2478   86.4710   12.7570 C.ar    1  UNL1        0.0726
     15 C          63.9924   85.3549   13.4279 C.ar    1  UNL1        0.0018
     16 N          61.6048   87.2951   10.9209 N.ar    1  UNL1       -0.1477
     17 N          60.3987   88.0022   11.4644 N.ar    1  UNL1       -0.1447
     18 C          59.9840   89.0441   10.4681 C.ar    1  UNL1        0.1446
     19 C          60.9339   88.9810    9.3089 C.ar    1  UNL1        0.1446
     20 N          61.9356   87.9001    9.5888 N.ar    1  UNL1       -0.1447
     21 C          63.7092   90.6945   14.2401 C.3     1  UNL1        0.0487
     22 C          65.0913   91.2307   14.0114 C.ar    1  UNL1       -0.0204
     23 C          66.1375   91.0861   15.0764 C.ar    1  UNL1       -0.0042
     24 C          67.5197   91.6223   14.8477 C.ar    1  UNL1       -0.0003
     25 C          67.8555   92.3031   13.5540 C.ar    1  UNL1        0.0015
     26 C          66.8091   92.4477   12.4889 C.ar    1  UNL1        0.0191
     27 C          65.4270   91.9115   12.7176 C.ar    1  UNL1       -0.0027
     28 C          67.1449   93.1285   11.1952 C.ar    1  UNL1        0.1029
     29 C          67.8372   92.3665   10.1043 C.ar    1  UNL1        0.0226
     30 C          68.1730   93.0473    8.8106 C.ar    1  UNL1        0.0241
     31 C          67.8164   94.4901    8.6078 C.ar    1  UNL1        0.1222
     32 N          67.1241   95.2521    9.6986 N.ar    1  UNL1       -0.1464
     33 N          66.7884   94.5713   10.9924 N.ar    1  UNL1       -0.1480
@<TRIPOS>BOND
     1     9    10    1
     2    10    11   ar
     3    11    12   ar
     4    12    13   ar
     5    13    16    1
     6    16    17   ar
     7    17    18   ar
     8    18    19   ar
     9    19    20   ar
    10    13    14   ar
    11    14     1    1
    12     1     2    2
    13     1     3   am
    14     3     4    1
    15     4     5    1
    16     5     6    1
    17     6     7    1
    18     7     8    1
    19     8    21    1
    20    21    22    1
    21    22    23   ar
    22    23    24   ar
    23    24    25   ar
    24    25    26   ar
    25    26    28    1
    26    28    29   ar
    27    29    30   ar
    28    30    31   ar
    29    31    32   ar
    30    32    33   ar
    31    26    27   ar
    32    14    15   ar
    33    15    10   ar
    34    20    16   ar
    35     8     3    1
    36    27    22   ar
    37    33    28   ar
