@<TRIPOS>MOLECULE
*****
 28 32 0 0 0
SMALL
GASTEIGER

@<TRIPOS>ATOM
      1 C          63.9453   86.0487   15.7080 C.ar    1  UNL1        0.1391
      2 C          63.2167   86.3465   16.9850 C.ar    1  UNL1        0.0369
      3 C          62.8676   87.7623   17.3367 C.ar    1  UNL1        0.0032
      4 C          63.2471   88.8803   16.4114 C.ar    1  UNL1        0.0017
      5 C          63.9757   88.5825   15.1345 C.ar    1  UNL1        0.0222
      6 C          64.3248   87.1667   14.7829 C.ar    1  UNL1        0.0385
      7 C          64.3552   89.7005   14.2094 C.ar    1  UNL1        0.1010
      8 N          65.4583   90.6926   14.4311 N.ar    1  UNL1       -0.2205
      9 C          65.4831   91.6280   13.2588 C.ar    1  UNL1        0.1795
     10 S          66.1802   92.8192   12.6713 S.2     1  UNL1       -0.0480
     11 C          65.5233   93.1414   11.3619 C.ar    1  UNL1        0.0573
     12 C          64.4202   92.1494   11.1401 C.ar    1  UNL1        0.0890
     13 N          64.3954   91.2140   12.3124 N.ar    1  UNL1       -0.2818
     14 C          63.6983   90.0228   12.8999 C.ar    1  UNL1        0.1011
     15 C          62.5466   89.2837   12.2858 C.ar    1  UNL1        0.1022
     16 C          62.7818   87.9803   11.5814 C.ar    1  UNL1        0.0414
     17 C          61.6301   87.2412   10.9673 C.ar    1  UNL1        0.1023
     18 N          60.2431   87.8054   11.0575 N.ar    1  UNL1       -0.2224
     19 C          60.0079   89.1086   11.7618 C.ar    1  UNL1        0.1989
     20 N          61.1596   89.8478   12.3760 N.ar    1  UNL1       -0.2224
     21 O          64.2944   84.6329   15.3564 O.3     1  UNL1       -0.4706
     22 C          63.2383   83.7100   14.8245 C.3     1  UNL1        0.2320
     23 C          63.6616   81.9403   10.7089 C.ar    1  UNL1       -0.0000
     24 C          62.8195   81.2488   11.7396 C.ar    1  UNL1       -0.0002
     25 C          62.6783   81.8387   13.1116 C.ar    1  UNL1       -0.0007
     26 C          63.3794   83.1201   13.4527 C.ar    1  UNL1        0.0212
     27 C          64.2216   83.8117   12.4219 C.ar    1  UNL1       -0.0007
     28 C          64.3627   83.2218   11.0500 C.ar    1  UNL1       -0.0002
@<TRIPOS>BOND
     1    23    24   ar
     2    24    25   ar
     3    25    26   ar
     4    26    22    1
     5    22    21    1
     6    21     1    1
     7     1     2   ar
     8     2     3   ar
     9     3     4   ar
    10     4     5   ar
    11     5     7    1
    12     7     8   ar
    13     8     9   ar
    14     9    10   ar
    15    10    11   ar
    16    11    12   ar
    17    12    13   ar
    18    13    14   ar
    19    14    15    1
    20    15    16   ar
    21    16    17   ar
    22    17    18   ar
    23    18    19   ar
    24    19    20   ar
    25     5     6   ar
    26    26    27   ar
    27    27    28   ar
    28    28    23   ar
    29     6     1   ar
    30    14     7   ar
    31    20    15   ar
    32    13     9   ar
@<TRIPOS>MOLECULE
*****
 28 32 0 0 0
SMALL
GASTEIGER

@<TRIPOS>ATOM
      1 C          61.6417   88.0948   10.0811 C.ar    1  UNL1        0.1391
      2 C          60.2359   88.2810   10.5704 C.ar    1  UNL1        0.0369
      3 C          59.9428   89.2850   11.6456 C.ar    1  UNL1        0.0032
      4 C          61.0554   90.1028   12.2315 C.ar    1  UNL1        0.0017
      5 C          62.4611   89.9166   11.7423 C.ar    1  UNL1        0.0222
      6 C          62.7542   88.9126   10.6670 C.ar    1  UNL1        0.0385
      7 C          63.5736   90.7344   12.3282 C.ar    1  UNL1        0.1010
      8 N          64.2117   91.9362   11.6967 N.ar    1  UNL1       -0.2205
      9 C          65.2759   92.4385   12.6268 C.ar    1  UNL1        0.1795
     10 S          66.3279   93.4917   12.8113 S.2     1  UNL1       -0.0480
     11 C          66.9978   93.2514   14.1317 C.ar    1  UNL1        0.0573
     12 C          66.3598   92.0497   14.7632 C.ar    1  UNL1        0.0890
     13 N          65.2956   91.5473   13.8332 N.ar    1  UNL1       -0.2818
     14 C          64.2436   90.4941   13.6487 C.ar    1  UNL1        0.1011
     15 C          63.9186   89.3938   14.6149 C.ar    1  UNL1        0.1022
     16 C          64.3671   87.9905   14.3321 C.ar    1  UNL1        0.0414
     17 C          64.0420   86.8902   15.2984 C.ar    1  UNL1        0.1023
     18 N          63.2685   87.1931   16.5474 N.ar    1  UNL1       -0.2224
     19 C          62.8201   88.5963   16.8302 C.ar    1  UNL1        0.1989
     20 N          63.1451   89.6966   15.8639 N.ar    1  UNL1       -0.2224
     21 O          61.9348   87.0908    9.0059 O.3     1  UNL1       -0.4706
     22 C          61.6919   85.6318    9.2558 C.3     1  UNL1        0.2320
     23 C          64.2335   83.4044   12.2271 C.ar    1  UNL1       -0.0000
     24 C          64.4129   83.1638   10.7575 C.ar    1  UNL1       -0.0002
     25 C          63.5657   83.9063    9.7670 C.ar    1  UNL1       -0.0007
     26 C          62.5391   84.8894   10.2462 C.ar    1  UNL1        0.0212
     27 C          62.3597   85.1300   11.7159 C.ar    1  UNL1       -0.0007
     28 C          63.2069   84.3876   12.7063 C.ar    1  UNL1       -0.0002
@<TRIPOS>BOND
     1    23    24   ar
     2    24    25   ar
     3    25    26   ar
     4    26    22    1
     5    22    21    1
     6    21     1    1
     7     1     2   ar
     8     2     3   ar
     9     3     4   ar
    10     4     5   ar
    11     5     7    1
    12     7     8   ar
    13     8     9   ar
    14     9    10   ar
    15    10    11   ar
    16    11    12   ar
    17    12    13   ar
    18    13    14   ar
    19    14    15    1
    20    15    16   ar
    21    16    17   ar
    22    17    18   ar
    23    18    19   ar
    24    19    20   ar
    25     5     6   ar
    26    26    27   ar
    27    27    28   ar
    28    28    23   ar
    29     6     1   ar
    30    14     7   ar
    31    20    15   ar
    32    13     9   ar
@<TRIPOS>MOLECULE
*****
 28 32 0 0 0
SMALL
GASTEIGER

@<TRIPOS>ATOM
      1 C          61.1878   87.5880   10.6563 C.ar    1  UNL1        0.1391
      2 C          59.8121   88.1072   10.9533 C.ar    1  UNL1        0.0369
      3 C          59.6420   89.3811   11.7267 C.ar    1  UNL1        0.0032
      4 C          60.8477   90.1359   12.2030 C.ar    1  UNL1        0.0017
      5 C          62.2233   89.6168   11.9060 C.ar    1  UNL1        0.0222
      6 C          62.3932   88.3428   11.1326 C.ar    1  UNL1        0.0385
      7 C          63.4288   90.3716   12.3823 C.ar    1  UNL1        0.1010
      8 N          64.0727   91.5342   11.6868 N.ar    1  UNL1       -0.2205
      9 C          65.2440   91.9775   12.5124 C.ar    1  UNL1        0.1795
     10 S          66.3658   92.9699   12.5928 S.2     1  UNL1       -0.0480
     11 C          67.1391   92.6946   13.8483 C.ar    1  UNL1        0.0573
     12 C          66.4952   91.5320   14.5438 C.ar    1  UNL1        0.0890
     13 N          65.3240   91.0888   13.7182 N.ar    1  UNL1       -0.2818
     14 C          64.2021   90.0963   13.6378 C.ar    1  UNL1        0.1011
     15 C          63.9057   89.0179   14.6374 C.ar    1  UNL1        0.1022
     16 C          63.3270   89.3734   15.9748 C.ar    1  UNL1        0.0414
     17 C          63.0305   88.2950   16.9744 C.ar    1  UNL1        0.1023
     18 N          63.3127   86.8610   16.6365 N.ar    1  UNL1       -0.2224
     19 C          63.8914   86.5055   15.2991 C.ar    1  UNL1        0.1989
     20 N          64.1878   87.5839   14.2995 N.ar    1  UNL1       -0.2224
     21 O          61.3577   86.3140    9.8829 O.3     1  UNL1       -0.4706
     22 C          62.7125   85.6799    9.7706 C.3     1  UNL1        0.2320
     23 C          63.8076   82.2248   12.4375 C.ar    1  UNL1       -0.0000
     24 C          63.0571   83.3963   12.9980 C.ar    1  UNL1       -0.0002
     25 C          62.6920   84.5481   12.1090 C.ar    1  UNL1       -0.0007
     26 C          63.0775   84.5282   10.6596 C.ar    1  UNL1        0.0212
     27 C          63.8281   83.3567   10.0990 C.ar    1  UNL1       -0.0007
     28 C          64.1931   82.2050   10.9880 C.ar    1  UNL1       -0.0002
@<TRIPOS>BOND
     1    23    24   ar
     2    24    25   ar
     3    25    26   ar
     4    26    22    1
     5    22    21    1
     6    21     1    1
     7     1     2   ar
     8     2     3   ar
     9     3     4   ar
    10     4     5   ar
    11     5     7    1
    12     7     8   ar
    13     8     9   ar
    14     9    10   ar
    15    10    11   ar
    16    11    12   ar
    17    12    13   ar
    18    13    14   ar
    19    14    15    1
    20    15    16   ar
    21    16    17   ar
    22    17    18   ar
    23    18    19   ar
    24    19    20   ar
    25     5     6   ar
    26    26    27   ar
    27    27    28   ar
    28    28    23   ar
    29     6     1   ar
    30    14     7   ar
    31    20    15   ar
    32    13     9   ar
@<TRIPOS>MOLECULE
*****
 28 32 0 0 0
SMALL
GASTEIGER

@<TRIPOS>ATOM
      1 C          62.2016   89.4918   11.4566 C.ar    1  UNL1        0.1391
      2 C          62.1171   90.1110   10.0929 C.ar    1  UNL1        0.0369
      3 C          63.0132   91.2590    9.7336 C.ar    1  UNL1        0.0032
      4 C          63.9937   91.7878   10.7381 C.ar    1  UNL1        0.0017
      5 C          64.0782   91.1687   12.1018 C.ar    1  UNL1        0.0222
      6 C          63.1820   90.0207   12.4610 C.ar    1  UNL1        0.0385
      7 C          65.0586   91.6976   13.1062 C.ar    1  UNL1        0.1010
      8 N          64.9602   91.5518   14.5958 N.ar    1  UNL1       -0.2205
      9 C          66.1504   92.2292   15.2076 C.ar    1  UNL1        0.1795
     10 S          66.8252   92.5578   16.5064 S.2     1  UNL1       -0.0480
     11 C          68.0763   93.3254   16.1975 C.ar    1  UNL1        0.0573
     12 C          68.1748   93.4713   14.7079 C.ar    1  UNL1        0.0890
     13 N          66.9845   92.7938   14.0961 N.ar    1  UNL1       -0.2818
     14 C          66.3098   92.4653   12.7973 C.ar    1  UNL1        0.1011
     15 C          66.8001   92.8388   11.4298 C.ar    1  UNL1        0.1022
     16 C          67.7643   91.9442   10.7085 C.ar    1  UNL1        0.0414
     17 C          68.2546   92.3177    9.3410 C.ar    1  UNL1        0.1023
     18 N          67.7807   93.5858    8.6948 N.ar    1  UNL1       -0.2224
     19 C          66.8166   94.4803    9.4161 C.ar    1  UNL1        0.1989
     20 N          66.3263   94.1068   10.7836 N.ar    1  UNL1       -0.2224
     21 O          61.3054   88.3437   11.8158 O.3     1  UNL1       -0.4706
     22 C          60.8836   87.3633   10.7618 C.3     1  UNL1        0.2320
     23 C          63.6095   83.9672    9.6280 C.ar    1  UNL1       -0.0000
     24 C          63.1947   84.9727    8.5953 C.ar    1  UNL1       -0.0002
     25 C          62.2861   86.1049    8.9731 C.ar    1  UNL1       -0.0007
     26 C          61.7923   86.2313   10.3839 C.ar    1  UNL1        0.0212
     27 C          62.2070   85.2257   11.4167 C.ar    1  UNL1       -0.0007
     28 C          63.1156   84.0936   11.0388 C.ar    1  UNL1       -0.0002
@<TRIPOS>BOND
     1    23    24   ar
     2    24    25   ar
     3    25    26   ar
     4    26    22    1
     5    22    21    1
     6    21     1    1
     7     1     2   ar
     8     2     3   ar
     9     3     4   ar
    10     4     5   ar
    11     5     7    1
    12     7     8   ar
    13     8     9   ar
    14     9    10   ar
    15    10    11   ar
    16    11    12   ar
    17    12    13   ar
    18    13    14   ar
    19    14    15    1
    20    15    16   ar
    21    16    17   ar
    22    17    18   ar
    23    18    19   ar
    24    19    20   ar
    25     5     6   ar
    26    26    27   ar
    27    27    28   ar
    28    28    23   ar
    29     6     1   ar
    30    14     7   ar
    31    20    15   ar
    32    13     9   ar
@<TRIPOS>MOLECULE
*****
 28 32 0 0 0
SMALL
GASTEIGER

@<TRIPOS>ATOM
      1 C          63.7372   90.8905   12.3239 C.ar    1  UNL1        0.1391
      2 C          63.0725   91.2295   11.0226 C.ar    1  UNL1        0.0369
      3 C          62.4298   90.1487   10.2047 C.ar    1  UNL1        0.0032
      4 C          62.4518   88.7289   10.6882 C.ar    1  UNL1        0.0017
      5 C          63.1165   88.3899   11.9895 C.ar    1  UNL1        0.0222
      6 C          63.7592   89.4707   12.8073 C.ar    1  UNL1        0.0385
      7 C          63.1384   86.9702   12.4729 C.ar    1  UNL1        0.1010
      8 N          63.6140   86.5036   13.8168 N.ar    1  UNL1       -0.2205
      9 C          63.4582   85.0127   13.8718 C.ar    1  UNL1        0.1795
     10 S          63.6558   83.8030   14.7364 S.2     1  UNL1       -0.0480
     11 C          63.2061   82.6005   13.9607 C.ar    1  UNL1        0.0573
     12 C          62.7306   83.0670   12.6167 C.ar    1  UNL1        0.0890
     13 N          62.8864   84.5578   12.5618 N.ar    1  UNL1       -0.2818
     14 C          62.6887   85.7675   11.6972 C.ar    1  UNL1        0.1011
     15 C          62.1381   85.7737   10.3019 C.ar    1  UNL1        0.1022
     16 C          62.9566   85.2265    9.1702 C.ar    1  UNL1        0.0414
     17 C          62.4060   85.2326    7.7749 C.ar    1  UNL1        0.1023
     18 N          61.0368   85.7859    7.5114 N.ar    1  UNL1       -0.2224
     19 C          60.2184   86.3330    8.6431 C.ar    1  UNL1        0.1989
     20 N          60.7691   86.3269   10.0383 N.ar    1  UNL1       -0.2224
     21 O          64.3799   91.9713   13.1417 O.3     1  UNL1       -0.4706
     22 C          65.8525   92.2290   13.0193 C.3     1  UNL1        0.2320
     23 C          67.4403   94.5981    9.5385 C.ar    1  UNL1       -0.0000
     24 C          66.6917   95.2910   10.6381 C.ar    1  UNL1       -0.0002
     25 C          66.1624   94.5013   11.7985 C.ar    1  UNL1       -0.0007
     26 C          66.3818   93.0187   11.8591 C.ar    1  UNL1        0.0212
     27 C          67.1305   92.3257   10.7594 C.ar    1  UNL1       -0.0007
     28 C          67.6597   93.1154    9.5991 C.ar    1  UNL1       -0.0002
@<TRIPOS>BOND
     1    23    24   ar
     2    24    25   ar
     3    25    26   ar
     4    26    22    1
     5    22    21    1
     6    21     1    1
     7     1     2   ar
     8     2     3   ar
     9     3     4   ar
    10     4     5   ar
    11     5     7    1
    12     7     8   ar
    13     8     9   ar
    14     9    10   ar
    15    10    11   ar
    16    11    12   ar
    17    12    13   ar
    18    13    14   ar
    19    14    15    1
    20    15    16   ar
    21    16    17   ar
    22    17    18   ar
    23    18    19   ar
    24    19    20   ar
    25     5     6   ar
    26    26    27   ar
    27    27    28   ar
    28    28    23   ar
    29     6     1   ar
    30    14     7   ar
    31    20    15   ar
    32    13     9   ar
@<TRIPOS>MOLECULE
*****
 28 32 0 0 0
SMALL
GASTEIGER

@<TRIPOS>ATOM
      1 C          62.0876   88.9052   11.3549 C.ar    1  UNL1        0.1391
      2 C          61.7929   89.5650   10.0403 C.ar    1  UNL1        0.0369
      3 C          62.4527   90.8656    9.6894 C.ar    1  UNL1        0.0032
      4 C          63.4070   91.5064   10.6531 C.ar    1  UNL1        0.0017
      5 C          63.7017   90.8467   11.9676 C.ar    1  UNL1        0.0222
      6 C          63.0419   89.5460   12.3184 C.ar    1  UNL1        0.0385
      7 C          64.6560   91.4875   12.9311 C.ar    1  UNL1        0.1010
      8 N          65.4772   92.7160   12.6733 N.ar    1  UNL1       -0.2205
      9 C          66.2855   93.0001   13.9046 C.ar    1  UNL1        0.1795
     10 S          67.2925   93.9350   14.5062 S.2     1  UNL1       -0.0480
     11 C          67.5932   93.4598   15.8968 C.ar    1  UNL1        0.0573
     12 C          66.7720   92.2313   16.1546 C.ar    1  UNL1        0.0890
     13 N          65.9638   91.9472   14.9234 N.ar    1  UNL1       -0.2818
     14 C          64.9567   91.0124   14.3218 C.ar    1  UNL1        0.1011
     15 C          64.3559   89.8130   14.9930 C.ar    1  UNL1        0.1022
     16 C          64.7088   88.4338   14.5203 C.ar    1  UNL1        0.0414
     17 C          64.1079   87.2344   15.1915 C.ar    1  UNL1        0.1023
     18 N          63.1542   87.4142   16.3353 N.ar    1  UNL1       -0.2224
     19 C          62.8015   88.7934   16.8079 C.ar    1  UNL1        0.1989
     20 N          63.4023   89.9928   16.1367 N.ar    1  UNL1       -0.2224
     21 O          61.4278   87.6045   11.7058 O.3     1  UNL1       -0.4706
     22 C          62.0000   86.3132   11.2008 C.3     1  UNL1        0.2320
     23 C          61.4841   85.1602    6.8817 C.ar    1  UNL1       -0.0000
     24 C          60.3722   85.8546    7.6105 C.ar    1  UNL1       -0.0002
     25 C          60.5441   86.2390    9.0502 C.ar    1  UNL1       -0.0007
     26 C          61.8280   85.9289    9.7611 C.ar    1  UNL1        0.0212
     27 C          62.9401   85.2344    9.0323 C.ar    1  UNL1       -0.0007
     28 C          62.7681   84.8501    7.5926 C.ar    1  UNL1       -0.0002
@<TRIPOS>BOND
     1    23    24   ar
     2    24    25   ar
     3    25    26   ar
     4    26    22    1
     5    22    21    1
     6    21     1    1
     7     1     2   ar
     8     2     3   ar
     9     3     4   ar
    10     4     5   ar
    11     5     7    1
    12     7     8   ar
    13     8     9   ar
    14     9    10   ar
    15    10    11   ar
    16    11    12   ar
    17    12    13   ar
    18    13    14   ar
    19    14    15    1
    20    15    16   ar
    21    16    17   ar
    22    17    18   ar
    23    18    19   ar
    24    19    20   ar
    25     5     6   ar
    26    26    27   ar
    27    27    28   ar
    28    28    23   ar
    29     6     1   ar
    30    14     7   ar
    31    20    15   ar
    32    13     9   ar
@<TRIPOS>MOLECULE
*****
 28 32 0 0 0
SMALL
GASTEIGER

@<TRIPOS>ATOM
      1 C          63.4818   90.5884   12.3507 C.ar    1  UNL1        0.1391
      2 C          62.8635   90.9656   11.0371 C.ar    1  UNL1        0.0369
      3 C          62.2879   89.9045   10.1468 C.ar    1  UNL1        0.0032
      4 C          62.3306   88.4660   10.5701 C.ar    1  UNL1        0.0017
      5 C          62.9488   88.0888   11.8837 C.ar    1  UNL1        0.0222
      6 C          63.5244   89.1501   12.7740 C.ar    1  UNL1        0.0385
      7 C          62.9915   86.6505   12.3070 C.ar    1  UNL1        0.1010
      8 N          63.4132   86.1395   13.6528 N.ar    1  UNL1       -0.2205
      9 C          63.3023   84.6437   13.6363 C.ar    1  UNL1        0.1795
     10 S          63.4944   83.4035   14.4579 S.2     1  UNL1       -0.0480
     11 C          63.1228   82.2235   13.6098 C.ar    1  UNL1        0.0573
     12 C          62.7011   82.7344   12.2640 C.ar    1  UNL1        0.0890
     13 N          62.8120   84.2302   12.2804 N.ar    1  UNL1       -0.2818
     14 C          62.6199   85.4704   11.4588 C.ar    1  UNL1        0.1011
     15 C          62.1404   85.5215   10.0384 C.ar    1  UNL1        0.1022
     16 C          63.0254   85.0333    8.9300 C.ar    1  UNL1        0.0414
     17 C          62.5459   85.0844    7.5096 C.ar    1  UNL1        0.1023
     18 N          61.1814   85.6238    7.1977 N.ar    1  UNL1       -0.2224
     19 C          60.2965   86.1120    8.3060 C.ar    1  UNL1        0.1989
     20 N          60.7760   86.0609    9.7264 N.ar    1  UNL1       -0.2224
     21 O          64.0574   91.6496   13.2410 O.3     1  UNL1       -0.4706
     22 C          65.3664   92.2931   12.8912 C.3     1  UNL1        0.2320
     23 C          68.6666   92.4841   15.9444 C.ar    1  UNL1       -0.0000
     24 C          68.9764   92.0989   14.5283 C.ar    1  UNL1       -0.0002
     25 C          67.8763   92.0352   13.5105 C.ar    1  UNL1       -0.0007
     26 C          66.4665   92.3567   13.9089 C.ar    1  UNL1        0.0212
     27 C          66.1565   92.7420   15.3251 C.ar    1  UNL1       -0.0007
     28 C          67.2566   92.8056   16.3429 C.ar    1  UNL1       -0.0002
@<TRIPOS>BOND
     1    23    24   ar
     2    24    25   ar
     3    25    26   ar
     4    26    22    1
     5    22    21    1
     6    21     1    1
     7     1     2   ar
     8     2     3   ar
     9     3     4   ar
    10     4     5   ar
    11     5     7    1
    12     7     8   ar
    13     8     9   ar
    14     9    10   ar
    15    10    11   ar
    16    11    12   ar
    17    12    13   ar
    18    13    14   ar
    19    14    15    1
    20    15    16   ar
    21    16    17   ar
    22    17    18   ar
    23    18    19   ar
    24    19    20   ar
    25     5     6   ar
    26    26    27   ar
    27    27    28   ar
    28    28    23   ar
    29     6     1   ar
    30    14     7   ar
    31    20    15   ar
    32    13     9   ar
@<TRIPOS>MOLECULE
*****
 28 32 0 0 0
SMALL
GASTEIGER

@<TRIPOS>ATOM
      1 C          64.2574   90.8473   13.0561 C.ar    1  UNL1        0.1391
      2 C          64.7025   89.8796   14.1123 C.ar    1  UNL1        0.0369
      3 C          64.2458   88.4517   14.0616 C.ar    1  UNL1        0.0032
      4 C          63.3440   87.9916   12.9547 C.ar    1  UNL1        0.0017
      5 C          62.8989   88.9593   11.8986 C.ar    1  UNL1        0.0222
      6 C          63.3557   90.3872   11.9493 C.ar    1  UNL1        0.0385
      7 C          61.9972   88.4991   10.7918 C.ar    1  UNL1        0.1010
      8 N          61.2071   89.3832    9.8730 N.ar    1  UNL1       -0.2205
      9 C          60.4488   88.5046    8.9228 C.ar    1  UNL1        0.1795
     10 S          59.4919   88.5080    7.7677 S.2     1  UNL1       -0.0480
     11 C          59.2218   87.0829    7.3853 C.ar    1  UNL1        0.0573
     12 C          60.0119   86.1988    8.3041 C.ar    1  UNL1        0.0890
     13 N          60.7702   87.0774    9.2543 N.ar    1  UNL1       -0.2818
     14 C          61.7271   87.0740   10.4094 C.ar    1  UNL1        0.1011
     15 C          62.3114   85.8589   11.0667 C.ar    1  UNL1        0.1022
     16 C          63.1282   84.8910   10.2629 C.ar    1  UNL1        0.0414
     17 C          63.7125   83.6759   10.9202 C.ar    1  UNL1        0.1023
     18 N          63.4800   83.4286   12.3814 N.ar    1  UNL1       -0.2224
     19 C          62.6632   84.3965   13.1851 C.ar    1  UNL1        0.1989
     20 N          62.0789   85.6116   12.5278 N.ar    1  UNL1       -0.2224
     21 O          64.7142   92.2753   13.1068 O.3     1  UNL1       -0.4706
     22 C          66.1713   92.6020   12.9654 C.3     1  UNL1        0.2320
     23 C          67.8489   93.7061    8.9384 C.ar    1  UNL1       -0.0000
     24 C          68.2814   92.4357    9.6083 C.ar    1  UNL1       -0.0002
     25 C          67.7222   92.0676   10.9507 C.ar    1  UNL1       -0.0007
     26 C          66.7305   92.9700   11.6230 C.ar    1  UNL1        0.0212
     27 C          66.2979   94.2406   10.9531 C.ar    1  UNL1       -0.0007
     28 C          66.8571   94.6086    9.6108 C.ar    1  UNL1       -0.0002
@<TRIPOS>BOND
     1    23    24   ar
     2    24    25   ar
     3    25    26   ar
     4    26    22    1
     5    22    21    1
     6    21     1    1
     7     1     2   ar
     8     2     3   ar
     9     3     4   ar
    10     4     5   ar
    11     5     7    1
    12     7     8   ar
    13     8     9   ar
    14     9    10   ar
    15    10    11   ar
    16    11    12   ar
    17    12    13   ar
    18    13    14   ar
    19    14    15    1
    20    15    16   ar
    21    16    17   ar
    22    17    18   ar
    23    18    19   ar
    24    19    20   ar
    25     5     6   ar
    26    26    27   ar
    27    27    28   ar
    28    28    23   ar
    29     6     1   ar
    30    14     7   ar
    31    20    15   ar
    32    13     9   ar
@<TRIPOS>MOLECULE
*****
 28 32 0 0 0
SMALL
GASTEIGER

@<TRIPOS>ATOM
      1 C          65.2801   91.4210   14.5464 C.ar    1  UNL1        0.1391
      2 C          64.5912   91.7895   15.8270 C.ar    1  UNL1        0.0369
      3 C          63.6731   90.8085   16.4939 C.ar    1  UNL1        0.0032
      4 C          63.4438   89.4591   15.8801 C.ar    1  UNL1        0.0017
      5 C          64.1326   89.0907   14.5996 C.ar    1  UNL1        0.0222
      6 C          65.0508   90.0718   13.9327 C.ar    1  UNL1        0.0385
      7 C          63.9033   87.7414   13.9859 C.ar    1  UNL1        0.1010
      8 N          64.4386   86.4372   14.4984 N.ar    1  UNL1       -0.2205
      9 C          63.9646   85.3491   13.5812 C.ar    1  UNL1        0.1795
     10 S          64.0024   83.8705   13.3311 S.2     1  UNL1       -0.0480
     11 C          63.1976   83.5884   12.0972 C.ar    1  UNL1        0.0573
     12 C          62.6623   84.8926   11.5846 C.ar    1  UNL1        0.0890
     13 N          63.1363   85.9807   12.5018 N.ar    1  UNL1       -0.2818
     14 C          63.0984   87.4592   12.7519 C.ar    1  UNL1        0.1011
     15 C          62.3816   88.4770   11.9150 C.ar    1  UNL1        0.1022
     16 C          63.1447   89.6096   11.2946 C.ar    1  UNL1        0.0414
     17 C          62.4278   90.6273   10.4577 C.ar    1  UNL1        0.1023
     18 N          60.9479   90.5124   10.2412 N.ar    1  UNL1       -0.2224
     19 C          60.1849   89.3797   10.8617 C.ar    1  UNL1        0.1989
     20 N          60.9018   88.3620   11.6986 N.ar    1  UNL1       -0.2224
     21 O          66.1983   92.4021   13.8795 O.3     1  UNL1       -0.4706
     22 C          65.7317   93.1682   12.6773 C.3     1  UNL1        0.2320
     23 C          68.2714   93.2937    8.9646 C.ar    1  UNL1       -0.0000
     24 C          67.3513   94.4347    9.2827 C.ar    1  UNL1       -0.0002
     25 C          66.5047   94.3929   10.5203 C.ar    1  UNL1       -0.0007
     26 C          66.5783   93.2100   11.4397 C.ar    1  UNL1        0.0212
     27 C          67.4985   92.0689   11.1216 C.ar    1  UNL1       -0.0007
     28 C          68.3451   92.1107    9.8841 C.ar    1  UNL1       -0.0002
@<TRIPOS>BOND
     1    23    24   ar
     2    24    25   ar
     3    25    26   ar
     4    26    22    1
     5    22    21    1
     6    21     1    1
     7     1     2   ar
     8     2     3   ar
     9     3     4   ar
    10     4     5   ar
    11     5     7    1
    12     7     8   ar
    13     8     9   ar
    14     9    10   ar
    15    10    11   ar
    16    11    12   ar
    17    12    13   ar
    18    13    14   ar
    19    14    15    1
    20    15    16   ar
    21    16    17   ar
    22    17    18   ar
    23    18    19   ar
    24    19    20   ar
    25     5     6   ar
    26    26    27   ar
    27    27    28   ar
    28    28    23   ar
    29     6     1   ar
    30    14     7   ar
    31    20    15   ar
    32    13     9   ar
