@<TRIPOS>MOLECULE
*****
 35 38 0 0 0
SMALL
GASTEIGER

@<TRIPOS>ATOM
      1 C          62.5858   88.6653   11.6944 C.ar    1  UNL1        0.0544
      2 C          63.5114   89.1041   12.7902 C.ar    1  UNL1       -0.0163
      3 C          63.6959   88.2442   14.0053 C.3     1  UNL1        0.0310
      4 C          64.2524   90.4028   12.6709 C.ar    1  UNL1        0.0308
      5 C          65.1780   90.8416   13.7667 C.ar    1  UNL1        0.0058
      6 C          65.9190   92.1403   13.6473 C.ar    1  UNL1        0.0378
      7 C          65.7345   93.0002   12.4322 C.ar    1  UNL1        0.1517
      8 C          64.8089   92.5614   11.3364 C.ar    1  UNL1        0.0752
      9 C          64.0679   91.2627   11.4558 C.ar    1  UNL1        0.1514
     10 O          63.1423   90.8238   10.3599 O.2     1  UNL1       -0.4212
     11 C          62.4013   89.5252   10.4793 C.ar    1  UNL1        0.3417
     12 O          61.4757   89.0863    9.3835 O.2     1  UNL1       -0.2448
     13 C          61.8448   87.3665   11.8137 C.3     1  UNL1        0.0613
     14 C          63.5838   83.7997   11.7574 C.ar    1  UNL1        0.1752
     15 N          63.7038   83.5661   10.2805 N.ar    1  UNL1       -0.2257
     16 C          63.2041   84.5994    9.3148 C.ar    1  UNL1        0.1002
     17 C          62.5844   85.8662    9.8258 C.ar    1  UNL1        0.0191
     18 C          62.4644   86.0998   11.3027 C.ar    1  UNL1        0.0143
     19 C          62.9641   85.0665   12.2684 C.ar    1  UNL1        0.1691
     20 F          62.8441   85.3001   13.7453 F       1  UNL1       -0.2015
     21 N          64.0835   82.7665   12.7231 N.pl3   1  UNL1       -0.1873
     22 H          65.0379   82.5256   12.7361 H       1  UNL1        0.1764
     23 S          63.1289   82.1003   13.6692 S.O2    1  UNL1        0.1111
     24 O          63.9177   82.6228   14.8330 O.2     1  UNL1       -0.1381
     25 O          62.3401   81.5778   12.5053 O.2     1  UNL1       -0.1381
     26 C          60.8943   80.8465   14.0989 C.3     1  UNL1        0.1116
     27 N          62.1742   81.4341   14.6152 N.3     1  UNL1       -0.1651
     28 H          62.6865   80.6752   15.0646 H       1  UNL1        0.1502
     29 O          66.4755   94.2989   12.3129 O.3     1  UNL1       -0.4222
     30 C          66.5841   94.9809   10.9813 C.ar    1  UNL1        0.3246
     31 N          67.5506   94.4705    9.9539 N.ar    1  UNL1       -0.1924
     32 C          67.6592   95.1526    8.6223 C.ar    1  UNL1        0.1053
     33 C          66.8013   96.3448    8.3182 C.ar    1  UNL1        0.0416
     34 C          65.8349   96.8551    9.3455 C.ar    1  UNL1        0.1053
     35 N          65.7263   96.1732   10.6771 N.ar    1  UNL1       -0.1924
@<TRIPOS>BOND
     1    26    27    1
     2    27    23    1
     3    23    24    2
     4    23    25    2
     5    23    21    1
     6    21    14    1
     7    14    15   ar
     8    15    16   ar
     9    16    17   ar
    10    17    18   ar
    11    18    13    1
    12    13     1    1
    13     1     2   ar
    14     2     3    1
    15     2     4   ar
    16     4     5   ar
    17     5     6   ar
    18     6     7   ar
    19     7    29    1
    20    29    30    1
    21    30    31   ar
    22    31    32   ar
    23    32    33   ar
    24    33    34   ar
    25    34    35   ar
    26     7     8   ar
    27     8     9   ar
    28     9    10   ar
    29    10    11   ar
    30    11    12    2
    31    18    19   ar
    32    19    20    1
    33    19    14   ar
    34    11     1   ar
    35     9     4   ar
    36    35    30   ar
    37    27    28    1
    38    21    22    1
@<TRIPOS>MOLECULE
*****
 35 38 0 0 0
SMALL
GASTEIGER

@<TRIPOS>ATOM
      1 C          62.7573   87.7669   12.2168 C.ar    1  UNL1        0.0544
      2 C          62.7108   88.8805   11.2130 C.ar    1  UNL1       -0.0163
      3 C          61.8792   88.7381    9.9728 C.3     1  UNL1        0.0310
      4 C          63.4960   90.1366   11.4494 C.ar    1  UNL1        0.0308
      5 C          63.4496   91.2502   10.4455 C.ar    1  UNL1        0.0058
      6 C          64.2347   92.5062   10.6819 C.ar    1  UNL1        0.0378
      7 C          65.0663   92.6486   11.9222 C.ar    1  UNL1        0.1517
      8 C          65.1128   91.5350   12.9260 C.ar    1  UNL1        0.0752
      9 C          64.3276   90.2790   12.6896 C.ar    1  UNL1        0.1514
     10 O          64.3741   89.1653   13.6934 O.2     1  UNL1       -0.4212
     11 C          63.5889   87.9093   13.4570 C.ar    1  UNL1        0.3417
     12 O          63.6354   86.7956   14.4609 O.2     1  UNL1       -0.2448
     13 C          61.9721   86.5108   11.9804 C.3     1  UNL1        0.0613
     14 C          63.7762   82.9955   11.6088 C.ar    1  UNL1        0.1752
     15 N          63.9634   82.9287   10.1220 N.ar    1  UNL1       -0.2257
     16 C          63.4869   84.0561    9.2547 C.ar    1  UNL1        0.1002
     17 C          62.8231   85.2500    9.8742 C.ar    1  UNL1        0.0191
     18 C          62.6359   85.3168   11.3610 C.ar    1  UNL1        0.0143
     19 C          63.1124   84.1896   12.2283 C.ar    1  UNL1        0.1691
     20 F          62.9251   84.2563   13.7150 F       1  UNL1       -0.2015
     21 N          64.2527   81.8683   12.4761 N.pl3   1  UNL1       -0.1873
     22 H          65.2061   81.6232   12.4851 H       1  UNL1        0.1764
     23 S          63.2765   81.1145   13.3298 S.O2    1  UNL1        0.1111
     24 O          62.6371   80.5467   12.0974 O.2     1  UNL1       -0.1381
     25 O          63.9158   81.6822   14.5622 O.2     1  UNL1       -0.1381
     26 C          60.8439   80.7185   14.1519 C.3     1  UNL1        0.1116
     27 N          62.3002   80.3607   14.1835 N.3     1  UNL1       -0.1651
     28 H          62.3684   79.3797   13.9127 H       1  UNL1        0.1502
     29 O          65.8515   93.9047   12.1585 O.3     1  UNL1       -0.4222
     30 C          66.4199   94.6638   10.9964 C.ar    1  UNL1        0.3246
     31 N          67.3730   93.9899   10.0543 N.ar    1  UNL1       -0.1924
     32 C          67.9414   94.7491    8.8921 C.ar    1  UNL1        0.1053
     33 C          67.5566   96.1820    8.6719 C.ar    1  UNL1        0.0416
     34 C          66.6034   96.8559    9.6140 C.ar    1  UNL1        0.1053
     35 N          66.0351   96.0968   10.7761 N.ar    1  UNL1       -0.1924
@<TRIPOS>BOND
     1    26    27    1
     2    27    23    1
     3    23    24    2
     4    23    25    2
     5    23    21    1
     6    21    14    1
     7    14    15   ar
     8    15    16   ar
     9    16    17   ar
    10    17    18   ar
    11    18    13    1
    12    13     1    1
    13     1     2   ar
    14     2     3    1
    15     2     4   ar
    16     4     5   ar
    17     5     6   ar
    18     6     7   ar
    19     7    29    1
    20    29    30    1
    21    30    31   ar
    22    31    32   ar
    23    32    33   ar
    24    33    34   ar
    25    34    35   ar
    26     7     8   ar
    27     8     9   ar
    28     9    10   ar
    29    10    11   ar
    30    11    12    2
    31    18    19   ar
    32    19    20    1
    33    19    14   ar
    34    11     1   ar
    35     9     4   ar
    36    35    30   ar
    37    27    28    1
    38    21    22    1
@<TRIPOS>MOLECULE
*****
 35 38 0 0 0
SMALL
GASTEIGER

@<TRIPOS>ATOM
      1 C          63.4210   89.4616   13.2160 C.ar    1  UNL1        0.0544
      2 C          63.7479   88.8563   14.5490 C.ar    1  UNL1       -0.0163
      3 C          64.0658   89.7420   15.7171 C.3     1  UNL1        0.0310
      4 C          63.7568   87.3654   14.7139 C.ar    1  UNL1        0.0308
      5 C          64.0837   86.7602   16.0468 C.ar    1  UNL1        0.0058
      6 C          64.0926   85.2693   16.2116 C.ar    1  UNL1        0.0378
      7 C          63.7747   84.3837   15.0435 C.ar    1  UNL1        0.1517
      8 C          63.4478   84.9889   13.7105 C.ar    1  UNL1        0.0752
      9 C          63.4389   86.4798   13.5457 C.ar    1  UNL1        0.1514
     10 O          63.1120   87.0851   12.2127 O.2     1  UNL1       -0.4212
     11 C          63.1031   88.5759   12.0479 C.ar    1  UNL1        0.3417
     12 O          62.7762   89.1812   10.7149 O.2     1  UNL1       -0.2448
     13 C          63.4121   90.9525   13.0512 C.3     1  UNL1        0.0613
     14 C          66.2176   92.8887   11.0190 C.ar    1  UNL1        0.1752
     15 N          67.2308   93.1338   12.0976 N.ar    1  UNL1       -0.2257
     16 C          66.9711   92.6516   13.4941 C.ar    1  UNL1        0.1002
     17 C          65.6982   91.9246   13.8119 C.ar    1  UNL1        0.0191
     18 C          64.6850   91.6796   12.7333 C.ar    1  UNL1        0.0143
     19 C          64.9446   92.1616   11.3369 C.ar    1  UNL1        0.1691
     20 F          63.9314   91.9166   10.2583 F       1  UNL1       -0.2015
     21 N          66.4773   93.3708    9.6225 N.pl3   1  UNL1       -0.1873
     22 H          66.2663   92.7919    8.8547 H       1  UNL1        0.1764
     23 S          67.0584   94.7349    9.3959 S.O2    1  UNL1        0.1111
     24 O          65.7864   95.3587    9.8886 O.2     1  UNL1       -0.1381
     25 O          68.3305   94.1112    8.9033 O.2     1  UNL1       -0.1381
     26 C          67.3474   96.8369    7.8964 C.3     1  UNL1        0.1116
     27 N          67.6397   96.0991    9.1693 N.3     1  UNL1       -0.1651
     28 H          67.3118   96.6895    9.9338 H       1  UNL1        0.1502
     29 O          63.7836   82.8927   15.2083 O.3     1  UNL1       -0.4222
     30 C          63.4178   82.0083   14.0534 C.ar    1  UNL1        0.3246
     31 N          63.8066   82.3976   12.6580 N.ar    1  UNL1       -0.1924
     32 C          63.4407   81.5130   11.5031 C.ar    1  UNL1        0.1053
     33 C          62.6861   80.2392   11.7436 C.ar    1  UNL1        0.0416
     34 C          62.2972   79.8499   13.1391 C.ar    1  UNL1        0.1053
     35 N          62.6631   80.7344   14.2940 N.ar    1  UNL1       -0.1924
@<TRIPOS>BOND
     1    26    27    1
     2    27    23    1
     3    23    24    2
     4    23    25    2
     5    23    21    1
     6    21    14    1
     7    14    15   ar
     8    15    16   ar
     9    16    17   ar
    10    17    18   ar
    11    18    13    1
    12    13     1    1
    13     1     2   ar
    14     2     3    1
    15     2     4   ar
    16     4     5   ar
    17     5     6   ar
    18     6     7   ar
    19     7    29    1
    20    29    30    1
    21    30    31   ar
    22    31    32   ar
    23    32    33   ar
    24    33    34   ar
    25    34    35   ar
    26     7     8   ar
    27     8     9   ar
    28     9    10   ar
    29    10    11   ar
    30    11    12    2
    31    18    19   ar
    32    19    20    1
    33    19    14   ar
    34    11     1   ar
    35     9     4   ar
    36    35    30   ar
    37    27    28    1
    38    21    22    1
@<TRIPOS>MOLECULE
*****
 35 38 0 0 0
SMALL
GASTEIGER

@<TRIPOS>ATOM
      1 C          63.3585   89.6598   12.9913 C.ar    1  UNL1        0.0544
      2 C          62.7316   89.1100   11.7444 C.ar    1  UNL1       -0.0163
      3 C          62.1930   90.0437   10.7013 C.3     1  UNL1        0.0310
      4 C          62.6433   87.6265   11.5406 C.ar    1  UNL1        0.0308
      5 C          62.0164   87.0768   10.2938 C.ar    1  UNL1        0.0058
      6 C          61.9282   85.5933   10.0900 C.ar    1  UNL1        0.0378
      7 C          62.4668   84.6596   11.1331 C.ar    1  UNL1        0.1517
      8 C          63.0937   85.2094   12.3800 C.ar    1  UNL1        0.0752
      9 C          63.1819   86.6928   12.5838 C.ar    1  UNL1        0.1514
     10 O          63.8088   87.2427   13.8307 O.2     1  UNL1       -0.4212
     11 C          63.8971   88.7261   14.0344 C.ar    1  UNL1        0.3417
     12 O          64.5240   89.2759   15.2814 O.2     1  UNL1       -0.2448
     13 C          63.4468   91.1433   13.1951 C.3     1  UNL1        0.0613
     14 C          66.4096   92.9659   11.2847 C.ar    1  UNL1        0.1752
     15 N          67.3247   93.2931   12.4273 N.ar    1  UNL1       -0.2257
     16 C          66.9472   92.9037   13.8259 C.ar    1  UNL1        0.1002
     17 C          65.6545   92.1871   14.0818 C.ar    1  UNL1        0.0191
     18 C          64.7394   91.8599   12.9392 C.ar    1  UNL1        0.0143
     19 C          65.1169   92.2492   11.5407 C.ar    1  UNL1        0.1691
     20 F          64.2018   91.9220   10.3981 F       1  UNL1       -0.2015
     21 N          66.7871   93.3552    9.8862 N.pl3   1  UNL1       -0.1873
     22 H          66.7210   92.6970    9.1571 H       1  UNL1        0.1764
     23 S          67.2654   94.7475    9.5986 S.O2    1  UNL1        0.1111
     24 O          65.8945   95.2795    9.8944 O.2     1  UNL1       -0.1381
     25 O          68.6363   94.2154    9.3028 O.2     1  UNL1       -0.1381
     26 C          67.2724   96.8554    8.0797 C.3     1  UNL1        0.1116
     27 N          67.7438   96.1398    9.3109 N.3     1  UNL1       -0.1651
     28 H          67.4720   96.7151   10.1081 H       1  UNL1        0.1502
     29 O          62.3785   83.1761   10.9293 O.3     1  UNL1       -0.4222
     30 C          62.7046   82.2433   12.0578 C.ar    1  UNL1        0.3246
     31 N          61.6100   81.4706   12.7323 N.ar    1  UNL1       -0.1924
     32 C          61.9362   80.5378   13.8608 C.ar    1  UNL1        0.1053
     33 C          63.3568   80.3777   14.3149 C.ar    1  UNL1        0.0416
     34 C          64.4513   81.1504   13.6404 C.ar    1  UNL1        0.1053
     35 N          64.1252   82.0832   12.5120 N.ar    1  UNL1       -0.1924
@<TRIPOS>BOND
     1    26    27    1
     2    27    23    1
     3    23    24    2
     4    23    25    2
     5    23    21    1
     6    21    14    1
     7    14    15   ar
     8    15    16   ar
     9    16    17   ar
    10    17    18   ar
    11    18    13    1
    12    13     1    1
    13     1     2   ar
    14     2     3    1
    15     2     4   ar
    16     4     5   ar
    17     5     6   ar
    18     6     7   ar
    19     7    29    1
    20    29    30    1
    21    30    31   ar
    22    31    32   ar
    23    32    33   ar
    24    33    34   ar
    25    34    35   ar
    26     7     8   ar
    27     8     9   ar
    28     9    10   ar
    29    10    11   ar
    30    11    12    2
    31    18    19   ar
    32    19    20    1
    33    19    14   ar
    34    11     1   ar
    35     9     4   ar
    36    35    30   ar
    37    27    28    1
    38    21    22    1
@<TRIPOS>MOLECULE
*****
 35 38 0 0 0
SMALL
GASTEIGER

@<TRIPOS>ATOM
      1 C          62.5608   86.8925   11.9277 C.ar    1  UNL1        0.0544
      2 C          62.5668   88.1232   11.0703 C.ar    1  UNL1       -0.0163
      3 C          61.8909   88.1078    9.7312 C.3     1  UNL1        0.0310
      4 C          63.2487   89.3695   11.5519 C.ar    1  UNL1        0.0308
      5 C          63.2547   90.6003   10.6945 C.ar    1  UNL1        0.0058
      6 C          63.9365   91.8465   11.1761 C.ar    1  UNL1        0.0378
      7 C          64.6124   91.8619   12.5151 C.ar    1  UNL1        0.1517
      8 C          64.6064   90.6312   13.3725 C.ar    1  UNL1        0.0752
      9 C          63.9245   89.3850   12.8909 C.ar    1  UNL1        0.1514
     10 O          63.9185   88.1541   13.7483 O.2     1  UNL1       -0.4212
     11 C          63.2366   86.9079   13.2667 C.ar    1  UNL1        0.3417
     12 O          63.2306   85.6771   14.1241 O.2     1  UNL1       -0.2448
     13 C          61.8789   85.6462   11.4461 C.3     1  UNL1        0.0613
     14 C          63.5866   82.0943   11.9127 C.ar    1  UNL1        0.1752
     15 N          64.2933   81.9447   10.5981 N.ar    1  UNL1       -0.2257
     16 C          64.1952   83.0289    9.5661 C.ar    1  UNL1        0.1002
     17 C          63.3904   84.2628    9.8488 C.ar    1  UNL1        0.0191
     18 C          62.6837   84.4124   11.1634 C.ar    1  UNL1        0.0143
     19 C          62.7818   83.3282   12.1953 C.ar    1  UNL1        0.1691
     20 F          62.0750   83.4778   13.5099 F       1  UNL1       -0.2015
     21 N          63.6847   81.0101   12.9446 N.pl3   1  UNL1       -0.1873
     22 H          64.5620   80.7617   13.3157 H       1  UNL1        0.1764
     23 S          62.4460   80.3044   13.4110 S.O2    1  UNL1        0.1111
     24 O          62.4899   81.0766   14.6961 O.2     1  UNL1       -0.1381
     25 O          62.4020   79.5322   12.1258 O.2     1  UNL1       -0.1381
     26 C          59.9814   80.3885   14.2288 C.3     1  UNL1        0.1116
     27 N          61.2072   79.5987   13.8773 N.3     1  UNL1       -0.1651
     28 H          60.9387   78.9532   13.1345 H       1  UNL1        0.1502
     29 O          65.2943   93.1082   12.9967 O.3     1  UNL1       -0.4222
     30 C          66.4343   93.0123   13.9668 C.ar    1  UNL1        0.3246
     31 N          66.1788   93.1403   15.4393 N.ar    1  UNL1       -0.1924
     32 C          67.3189   93.0444   16.4095 C.ar    1  UNL1        0.1053
     33 C          68.7144   92.8205   15.9070 C.ar    1  UNL1        0.0416
     34 C          68.9698   92.6924   14.4345 C.ar    1  UNL1        0.1053
     35 N          67.8298   92.7883   13.4644 N.ar    1  UNL1       -0.1924
@<TRIPOS>BOND
     1    26    27    1
     2    27    23    1
     3    23    24    2
     4    23    25    2
     5    23    21    1
     6    21    14    1
     7    14    15   ar
     8    15    16   ar
     9    16    17   ar
    10    17    18   ar
    11    18    13    1
    12    13     1    1
    13     1     2   ar
    14     2     3    1
    15     2     4   ar
    16     4     5   ar
    17     5     6   ar
    18     6     7   ar
    19     7    29    1
    20    29    30    1
    21    30    31   ar
    22    31    32   ar
    23    32    33   ar
    24    33    34   ar
    25    34    35   ar
    26     7     8   ar
    27     8     9   ar
    28     9    10   ar
    29    10    11   ar
    30    11    12    2
    31    18    19   ar
    32    19    20    1
    33    19    14   ar
    34    11     1   ar
    35     9     4   ar
    36    35    30   ar
    37    27    28    1
    38    21    22    1
@<TRIPOS>MOLECULE
*****
 35 38 0 0 0
SMALL
GASTEIGER

@<TRIPOS>ATOM
      1 C          63.1641   89.0490   12.2461 C.ar    1  UNL1        0.0544
      2 C          62.5691   87.8595   11.5526 C.ar    1  UNL1       -0.0163
      3 C          62.9172   86.4736   12.0089 C.3     1  UNL1        0.0310
      4 C          61.6261   88.0558   10.4026 C.ar    1  UNL1        0.0308
      5 C          61.0312   86.8663    9.7091 C.ar    1  UNL1        0.0058
      6 C          60.0883   87.0626    8.5592 C.ar    1  UNL1        0.0378
      7 C          59.7402   88.4485    8.1029 C.ar    1  UNL1        0.1517
      8 C          60.3352   89.6380    8.7965 C.ar    1  UNL1        0.0752
      9 C          61.2781   89.4417    9.9463 C.ar    1  UNL1        0.1514
     10 O          61.8731   90.6312   10.6400 O.2     1  UNL1       -0.4212
     11 C          62.8160   90.4349   11.7898 C.ar    1  UNL1        0.3417
     12 O          63.4110   91.6244   12.4835 O.2     1  UNL1       -0.2448
     13 C          64.1071   88.8527   13.3961 C.3     1  UNL1        0.0613
     14 C          65.2732   91.9919   15.5257 C.ar    1  UNL1        0.1752
     15 N          64.3192   91.9208   16.6811 N.ar    1  UNL1       -0.2257
     16 C          63.2944   90.8270   16.7414 C.ar    1  UNL1        0.1002
     17 C          63.2238   89.8043   15.6464 C.ar    1  UNL1        0.0191
     18 C          64.1778   89.8754   14.4911 C.ar    1  UNL1        0.0143
     19 C          65.2024   90.9691   14.4307 C.ar    1  UNL1        0.1691
     20 F          66.1565   91.0401   13.2753 F       1  UNL1       -0.2015
     21 N          66.2979   93.0856   15.4654 N.pl3   1  UNL1       -0.1873
     22 H          66.0759   93.9867   15.7939 H       1  UNL1        0.1764
     23 S          67.6607   92.8064   14.9044 S.O2    1  UNL1        0.1111
     24 O          67.3269   93.6194   13.6889 O.2     1  UNL1       -0.1381
     25 O          67.9944   91.9933   16.1199 O.2     1  UNL1       -0.1381
     26 C          69.1714   91.6579   13.1299 C.3     1  UNL1        0.1116
     27 N          69.0236   92.5271   14.3434 N.3     1  UNL1       -0.1651
     28 H          69.4370   93.4301   14.1109 H       1  UNL1        0.1502
     29 O          58.7972   88.6448    6.9530 O.3     1  UNL1       -0.4222
     30 C          58.9349   89.8473    6.0670 C.ar    1  UNL1        0.3246
     31 N          57.7211   90.6432    5.6887 N.ar    1  UNL1       -0.1924
     32 C          57.8588   91.8457    4.8026 C.ar    1  UNL1        0.1053
     33 C          59.2104   92.2524    4.2950 C.ar    1  UNL1        0.0416
     34 C          60.4243   91.4565    4.6733 C.ar    1  UNL1        0.1053
     35 N          60.2866   90.2540    5.5593 N.ar    1  UNL1       -0.1924
@<TRIPOS>BOND
     1    26    27    1
     2    27    23    1
     3    23    24    2
     4    23    25    2
     5    23    21    1
     6    21    14    1
     7    14    15   ar
     8    15    16   ar
     9    16    17   ar
    10    17    18   ar
    11    18    13    1
    12    13     1    1
    13     1     2   ar
    14     2     3    1
    15     2     4   ar
    16     4     5   ar
    17     5     6   ar
    18     6     7   ar
    19     7    29    1
    20    29    30    1
    21    30    31   ar
    22    31    32   ar
    23    32    33   ar
    24    33    34   ar
    25    34    35   ar
    26     7     8   ar
    27     8     9   ar
    28     9    10   ar
    29    10    11   ar
    30    11    12    2
    31    18    19   ar
    32    19    20    1
    33    19    14   ar
    34    11     1   ar
    35     9     4   ar
    36    35    30   ar
    37    27    28    1
    38    21    22    1
@<TRIPOS>MOLECULE
*****
 35 38 0 0 0
SMALL
GASTEIGER

@<TRIPOS>ATOM
      1 C          63.3035   89.0762   12.2880 C.ar    1  UNL1        0.0544
      2 C          62.7079   87.9044   11.5655 C.ar    1  UNL1       -0.0163
      3 C          63.1232   86.5095   11.9284 C.3     1  UNL1        0.0310
      4 C          61.6969   88.1276   10.4800 C.ar    1  UNL1        0.0308
      5 C          61.1013   86.9558    9.7575 C.ar    1  UNL1        0.0058
      6 C          60.0903   87.1790    8.6720 C.ar    1  UNL1        0.0378
      7 C          59.6751   88.5739    8.3092 C.ar    1  UNL1        0.1517
      8 C          60.2707   89.7457    9.0317 C.ar    1  UNL1        0.0752
      9 C          61.2816   89.5225   10.1171 C.ar    1  UNL1        0.1514
     10 O          61.8773   90.6943   10.8397 O.2     1  UNL1       -0.4212
     11 C          62.8882   90.4712   11.9252 C.ar    1  UNL1        0.3417
     12 O          63.4839   91.6430   12.6478 O.2     1  UNL1       -0.2448
     13 C          64.3145   88.8531   13.3735 C.3     1  UNL1        0.0613
     14 C          63.5771   86.2478   16.2750 C.ar    1  UNL1        0.1752
     15 N          63.0241   87.1533   17.3353 N.ar    1  UNL1       -0.2257
     16 C          62.9013   88.6255   17.0750 C.ar    1  UNL1        0.1002
     17 C          63.3315   89.1921   15.7544 C.ar    1  UNL1        0.0191
     18 C          63.8844   88.2865   14.6941 C.ar    1  UNL1        0.0143
     19 C          64.0072   86.8144   14.9543 C.ar    1  UNL1        0.1691
     20 F          64.5602   85.9089   13.8940 F       1  UNL1       -0.2015
     21 N          63.6999   84.7757   16.5352 N.pl3   1  UNL1       -0.1873
     22 H          64.2485   84.4526   17.2862 H       1  UNL1        0.1764
     23 S          62.9869   83.7958   15.6513 S.O2    1  UNL1        0.1111
     24 O          61.7434   84.6310   15.7284 O.2     1  UNL1       -0.1381
     25 O          64.2305   82.9606   15.5742 O.2     1  UNL1       -0.1381
     26 C          62.6695   82.6795   13.3268 C.3     1  UNL1        0.1116
     27 N          62.2740   82.8158   14.7673 N.3     1  UNL1       -0.1651
     28 H          62.3906   81.8962   15.1930 H       1  UNL1        0.1502
     29 O          58.6641   88.7971    7.2237 O.3     1  UNL1       -0.4222
     30 C          58.8535   89.9138    6.2404 C.ar    1  UNL1        0.3246
     31 N          60.2224   90.2223    5.7104 N.ar    1  UNL1       -0.1924
     32 C          60.4117   91.3392    4.7270 C.ar    1  UNL1        0.1053
     33 C          59.2323   92.1475    4.2738 C.ar    1  UNL1        0.0416
     34 C          57.8634   91.8390    4.8039 C.ar    1  UNL1        0.1053
     35 N          57.6740   90.7222    5.7871 N.ar    1  UNL1       -0.1924
@<TRIPOS>BOND
     1    26    27    1
     2    27    23    1
     3    23    24    2
     4    23    25    2
     5    23    21    1
     6    21    14    1
     7    14    15   ar
     8    15    16   ar
     9    16    17   ar
    10    17    18   ar
    11    18    13    1
    12    13     1    1
    13     1     2   ar
    14     2     3    1
    15     2     4   ar
    16     4     5   ar
    17     5     6   ar
    18     6     7   ar
    19     7    29    1
    20    29    30    1
    21    30    31   ar
    22    31    32   ar
    23    32    33   ar
    24    33    34   ar
    25    34    35   ar
    26     7     8   ar
    27     8     9   ar
    28     9    10   ar
    29    10    11   ar
    30    11    12    2
    31    18    19   ar
    32    19    20    1
    33    19    14   ar
    34    11     1   ar
    35     9     4   ar
    36    35    30   ar
    37    27    28    1
    38    21    22    1
@<TRIPOS>MOLECULE
*****
 35 38 0 0 0
SMALL
GASTEIGER

@<TRIPOS>ATOM
      1 C          63.1496   89.4608   12.5182 C.ar    1  UNL1        0.0544
      2 C          62.6258   88.8012   11.2771 C.ar    1  UNL1       -0.0163
      3 C          62.0417   89.6340   10.1746 C.3     1  UNL1        0.0310
      4 C          62.6860   87.3088   11.1383 C.ar    1  UNL1        0.0308
      5 C          62.1621   86.6492    9.8972 C.ar    1  UNL1        0.0058
      6 C          62.2223   85.1569    9.7585 C.ar    1  UNL1        0.0378
      7 C          62.8064   84.3242   10.8610 C.ar    1  UNL1        0.1517
      8 C          63.3302   84.9838   12.1021 C.ar    1  UNL1        0.0752
      9 C          63.2700   86.4761   12.2408 C.ar    1  UNL1        0.1514
     10 O          63.7939   87.1358   13.4820 O.2     1  UNL1       -0.4212
     11 C          63.7337   88.6281   13.6207 C.ar    1  UNL1        0.3417
     12 O          64.2576   89.2878   14.8618 O.2     1  UNL1       -0.2448
     13 C          63.0895   90.9532   12.6569 C.3     1  UNL1        0.0613
     14 C          66.3738   93.1659   12.9153 C.ar    1  UNL1        0.1752
     15 N          66.6268   93.4680   11.4680 N.ar    1  UNL1       -0.2257
     16 C          65.7005   92.9317   10.4169 C.ar    1  UNL1        0.1002
     17 C          64.5215   92.0935   10.8133 C.ar    1  UNL1        0.0191
     18 C          64.2685   91.7915   12.2606 C.ar    1  UNL1        0.0143
     19 C          65.1947   92.3277   13.3116 C.ar    1  UNL1        0.1691
     20 F          64.9418   92.0256   14.7590 F       1  UNL1       -0.2015
     21 N          67.3000   93.7021   13.9664 N.pl3   1  UNL1       -0.1873
     22 H          67.3984   94.6743   14.0862 H       1  UNL1        0.1764
     23 S          68.0762   92.7570   14.8348 S.O2    1  UNL1        0.1111
     24 O          67.4475   93.3618   16.0549 O.2     1  UNL1       -0.1381
     25 O          68.7049   92.1522   13.6146 O.2     1  UNL1       -0.1381
     26 C          69.8104   92.3478   16.7256 C.3     1  UNL1        0.1116
     27 N          68.8526   91.8119   15.7032 N.3     1  UNL1       -0.1651
     28 H          68.1694   91.2467   16.2074 H       1  UNL1        0.1502
     29 O          62.8666   82.8318   10.7223 O.3     1  UNL1       -0.4222
     30 C          62.5984   81.9566   11.9106 C.ar    1  UNL1        0.3246
     31 N          62.1385   82.5656   13.2020 N.ar    1  UNL1       -0.1924
     32 C          61.8704   81.6904   14.3904 C.ar    1  UNL1        0.1053
     33 C          62.0621   80.2063   14.2874 C.ar    1  UNL1        0.0416
     34 C          62.5219   79.5973   12.9960 C.ar    1  UNL1        0.1053
     35 N          62.7901   80.4725   11.8076 N.ar    1  UNL1       -0.1924
@<TRIPOS>BOND
     1    26    27    1
     2    27    23    1
     3    23    24    2
     4    23    25    2
     5    23    21    1
     6    21    14    1
     7    14    15   ar
     8    15    16   ar
     9    16    17   ar
    10    17    18   ar
    11    18    13    1
    12    13     1    1
    13     1     2   ar
    14     2     3    1
    15     2     4   ar
    16     4     5   ar
    17     5     6   ar
    18     6     7   ar
    19     7    29    1
    20    29    30    1
    21    30    31   ar
    22    31    32   ar
    23    32    33   ar
    24    33    34   ar
    25    34    35   ar
    26     7     8   ar
    27     8     9   ar
    28     9    10   ar
    29    10    11   ar
    30    11    12    2
    31    18    19   ar
    32    19    20    1
    33    19    14   ar
    34    11     1   ar
    35     9     4   ar
    36    35    30   ar
    37    27    28    1
    38    21    22    1
