@<TRIPOS>MOLECULE
*****
 45 50 0 0 0
SMALL
GASTEIGER

@<TRIPOS>ATOM
      1 C          59.2549   89.8306    6.4451 C.2     1  UNL1        0.2461
      2 O          57.8669   89.2853    6.6067 O.2     1  UNL1       -0.2701
      3 N          60.3449   89.3961    7.3796 N.am    1  UNL1       -0.2964
      4 H          61.2559   89.7540    7.2735 H       1  UNL1        0.1501
      5 C          63.8008   91.4588    3.0576 C.3     1  UNL1        0.1304
      6 N          62.4778   92.1438    2.8834 N.ar    1  UNL1       -0.3254
      7 C          62.1741   93.2390    1.9044 C.ar    1  UNL1        0.0560
      8 C          60.7348   93.6259    2.0736 C.ar    1  UNL1       -0.0053
      9 C          60.1489   92.7699    3.1571 C.ar    1  UNL1        0.0132
     10 C          58.7737   92.7061    3.7526 C.ar    1  UNL1        0.0013
     11 C          58.4757   91.7264    4.8486 C.ar    1  UNL1        0.0046
     12 C          59.5529   90.8104    5.3491 C.ar    1  UNL1        0.0548
     13 C          60.9282   90.8741    4.7536 C.ar    1  UNL1        0.0217
     14 C          61.2261   91.8539    3.6576 C.ar    1  UNL1        0.0598
     15 C          63.1402   93.8415    0.9278 C.ar    1  UNL1        0.0186
     16 C          64.2800   94.6821    1.4219 C.ar    1  UNL1        0.0221
     17 C          65.2460   95.2846    0.4453 C.ar    1  UNL1        0.0989
     18 N          65.0723   95.0465   -1.0254 N.ar    1  UNL1       -0.2423
     19 C          63.9325   94.2059   -1.5195 C.ar    1  UNL1        0.0989
     20 C          62.9664   93.6034   -0.5429 C.ar    1  UNL1        0.0221
     21 C          60.0088   94.6832    1.2958 C.3     1  UNL1        0.0238
     22 C          59.0549   94.4457    0.1629 C.3     1  UNL1        0.0044
     23 C          58.5657   95.7794   -0.3187 C.3     1  UNL1        0.0003
     24 C          59.2174   96.8413    0.5166 C.3     1  UNL1        0.0003
     25 C          60.1093   96.1638    1.5144 C.3     1  UNL1        0.0044
     26 C          60.0468   88.4164    8.4756 C.3     1  UNL1        0.1260
     27 C          59.9261   87.6278    9.7458 C.3     1  UNL1        0.0269
     28 C          59.0656   86.4309    9.4683 C.3     1  UNL1        0.0022
     29 C          58.6545   86.4797    8.0266 C.3     1  UNL1        0.0022
     30 C          59.2610   87.7069    7.4131 C.3     1  UNL1        0.0269
     31 C          60.8950   89.3307    9.3090 C.2     1  UNL1        0.2419
     32 O          60.5168   90.7744    9.4598 O.2     1  UNL1       -0.2731
     33 N          62.1212   88.8014    9.9916 N.am    1  UNL1       -0.2826
     34 H          62.3694   87.8538    9.8927 H       1  UNL1        0.1549
     35 C          62.9694   89.7157   10.8251 C.ar    1  UNL1        0.0503
     36 C          63.5732   90.9445   10.2123 C.ar    1  UNL1        0.0147
     37 C          64.4213   91.8589   11.0457 C.ar    1  UNL1        0.0013
     38 C          64.6657   91.5445   12.4919 C.ar    1  UNL1        0.0001
     39 C          64.0620   90.3156   13.1047 C.ar    1  UNL1        0.0013
     40 C          63.2138   89.4013   12.2712 C.ar    1  UNL1        0.0147
     41 C          65.5139   92.4588   13.3253 C.2     1  UNL1        0.0012
     42 C          66.5394   91.8871   14.2588 C.2     1  UNL1        0.0151
     43 C          67.3875   92.8014   15.0922 C.2     1  UNL1        0.0729
     44 O          66.8581   93.3428   16.3869 O.co2   1  UNL1       -0.5446
     45 O          68.7652   93.1744   14.6308 O.co2   1  UNL1       -0.5446
@<TRIPOS>UNITY_ATOM_ATTR
44 1
charge -1
@<TRIPOS>BOND
     1     5     6    1
     2     6     7   ar
     3     7    15    1
     4    15    16   ar
     5    16    17   ar
     6    17    18   ar
     7    18    19   ar
     8    19    20   ar
     9     7     8   ar
    10     8    21    1
    11    21    22    1
    12    22    23    1
    13    23    24    1
    14    24    25    1
    15     8     9   ar
    16     9    10   ar
    17    10    11   ar
    18    11    12   ar
    19    12     1    1
    20     1     2    2
    21     1     3   am
    22     3    26    1
    23    26    31    1
    24    31    32    2
    25    31    33   am
    26    33    35    1
    27    35    36   ar
    28    36    37   ar
    29    37    38   ar
    30    38    41    1
    31    41    42    2
    32    42    43    1
    33    43    44   ar
    34    43    45   ar
    35    38    39   ar
    36    39    40   ar
    37    26    27    1
    38    27    28    1
    39    28    29    1
    40    29    30    1
    41    12    13   ar
    42    13    14   ar
    43    14     6   ar
    44    20    15   ar
    45    25    21    1
    46    14     9   ar
    47    30    26    1
    48    40    35   ar
    49     3     4    1
    50    33    34    1
@<TRIPOS>MOLECULE
*****
 45 50 0 0 0
SMALL
GASTEIGER

@<TRIPOS>ATOM
      1 C          63.4546   87.1589   13.9360 C.2     1  UNL1        0.2461
      2 O          62.4002   86.9410   14.9804 O.2     1  UNL1       -0.2701
      3 N          63.7164   86.1033   12.9030 N.am    1  UNL1       -0.2964
      4 H          64.4084   86.2463   12.2175 H       1  UNL1        0.1501
      5 C          64.0446   91.9941   10.6099 C.3     1  UNL1        0.1304
      6 N          64.8736   91.8566   11.8523 N.ar    1  UNL1       -0.3254
      7 C          65.8739   92.8526   12.3596 C.ar    1  UNL1        0.0560
      8 C          66.4663   92.3104   13.6265 C.ar    1  UNL1       -0.0053
      9 C          65.8323   90.9792   13.9022 C.ar    1  UNL1        0.0132
     10 C          66.0241   89.9863   15.0099 C.ar    1  UNL1        0.0013
     11 C          65.2315   88.7129   15.0212 C.ar    1  UNL1        0.0046
     12 C          64.2472   88.4324   13.9247 C.ar    1  UNL1        0.0548
     13 C          64.0553   89.4253   12.8169 C.ar    1  UNL1        0.0217
     14 C          64.8479   90.6987   12.8057 C.ar    1  UNL1        0.0598
     15 C          66.2207   94.1611   11.7135 C.ar    1  UNL1        0.0186
     16 C          66.8369   94.1824   10.3461 C.ar    1  UNL1        0.0221
     17 C          67.1838   95.4909    9.7000 C.ar    1  UNL1        0.0989
     18 N          66.9144   96.7782   10.4213 N.ar    1  UNL1       -0.2423
     19 C          66.2982   96.7570   11.7887 C.ar    1  UNL1        0.0989
     20 C          65.9514   95.4484   12.4348 C.ar    1  UNL1        0.0221
     21 C          67.5097   92.9815   14.4697 C.3     1  UNL1        0.0238
     22 C          68.9318   92.5339   14.6347 C.3     1  UNL1        0.0044
     23 C          69.6152   93.4938   15.5629 C.3     1  UNL1        0.0003
     24 C          68.6154   94.5347   15.9716 C.3     1  UNL1        0.0003
     25 C          67.3141   94.2181   15.2959 C.3     1  UNL1        0.0044
     26 C          62.9238   84.8298   12.9143 C.3     1  UNL1        0.1260
     27 C          62.0009   83.6739   12.6658 C.3     1  UNL1        0.0269
     28 C          62.2201   82.6637   13.7528 C.3     1  UNL1        0.0022
     29 C          63.2785   83.1953   14.6732 C.3     1  UNL1        0.0022
     30 C          63.7135   84.5341   14.1549 C.3     1  UNL1        0.0269
     31 C          62.2999   85.3917   11.6714 C.2     1  UNL1        0.2419
     32 O          62.4663   84.6805   10.3613 O.2     1  UNL1       -0.2731
     33 N          61.5095   86.6647   11.7386 N.am    1  UNL1       -0.2826
     34 H          61.4003   87.1315   12.5985 H       1  UNL1        0.1549
     35 C          60.8856   87.2267   10.4956 C.ar    1  UNL1        0.0503
     36 C          60.3865   86.3036    9.4238 C.ar    1  UNL1        0.0147
     37 C          59.7625   86.8655    8.1808 C.ar    1  UNL1        0.0013
     38 C          59.6376   88.3505    8.0096 C.ar    1  UNL1        0.0001
     39 C          60.1367   89.2735    9.0815 C.ar    1  UNL1        0.0013
     40 C          60.7607   88.7116   10.3244 C.ar    1  UNL1        0.0147
     41 C          59.0137   88.9124    6.7667 C.2     1  UNL1        0.0012
     42 C          58.9495   90.3973    6.5651 C.2     1  UNL1        0.0151
     43 C          58.3256   90.9592    5.3222 C.2     1  UNL1        0.0729
     44 O          56.8349   90.9414    5.1573 O.co2   1  UNL1       -0.5446
     45 O          59.1925   91.5390    4.2440 O.co2   1  UNL1       -0.5446
@<TRIPOS>UNITY_ATOM_ATTR
44 1
charge -1
@<TRIPOS>BOND
     1     5     6    1
     2     6     7   ar
     3     7    15    1
     4    15    16   ar
     5    16    17   ar
     6    17    18   ar
     7    18    19   ar
     8    19    20   ar
     9     7     8   ar
    10     8    21    1
    11    21    22    1
    12    22    23    1
    13    23    24    1
    14    24    25    1
    15     8     9   ar
    16     9    10   ar
    17    10    11   ar
    18    11    12   ar
    19    12     1    1
    20     1     2    2
    21     1     3   am
    22     3    26    1
    23    26    31    1
    24    31    32    2
    25    31    33   am
    26    33    35    1
    27    35    36   ar
    28    36    37   ar
    29    37    38   ar
    30    38    41    1
    31    41    42    2
    32    42    43    1
    33    43    44   ar
    34    43    45   ar
    35    38    39   ar
    36    39    40   ar
    37    26    27    1
    38    27    28    1
    39    28    29    1
    40    29    30    1
    41    12    13   ar
    42    13    14   ar
    43    14     6   ar
    44    20    15   ar
    45    25    21    1
    46    14     9   ar
    47    30    26    1
    48    40    35   ar
    49     3     4    1
    50    33    34    1
