@<TRIPOS>MOLECULE
*****
 36 39 0 0 0
SMALL
GASTEIGER

@<TRIPOS>ATOM
      1 S          61.6455   87.5271   10.9446 S.3     1  UNL1       -0.1124
      2 C          62.4942   88.6557   11.4504 C.ar    1  UNL1        0.0381
      3 C          63.3264   88.4734   12.6850 C.ar    1  UNL1        0.0380
      4 C          64.1751   89.6021   13.1908 C.ar    1  UNL1        0.1594
      5 F          65.0074   89.4198   14.4253 F       1  UNL1       -0.2027
      6 C          64.1915   90.9131   12.4621 C.ar    1  UNL1        0.1534
      7 C          63.3593   91.0954   11.2276 C.ar    1  UNL1        0.0344
      8 C          62.5106   89.9668   10.7217 C.ar    1  UNL1        0.0648
      9 CL         61.6783   90.1492    9.4872 Cl      1  UNL1       -0.0817
     10 S          65.0402   92.0417   12.9679 S.O2    1  UNL1        0.0772
     11 O          65.6552   92.1889   11.6078 O.2     1  UNL1       -0.1498
     12 O          64.4253   91.8945   14.3281 O.2     1  UNL1       -0.1498
     13 N          65.8890   93.1704   13.4737 N.pl3   1  UNL1       -0.1936
     14 H          65.6473   94.1011   13.2624 H       1  UNL1        0.1758
     15 C          67.1059   92.8810   14.3016 C.ar    1  UNL1        0.1786
     16 N          68.4365   92.4224   13.7828 N.ar    1  UNL1       -0.2214
     17 C          69.3589   92.2574   14.9541 C.ar    1  UNL1        0.1079
     18 C          68.5984   92.6140   16.1968 C.ar    1  UNL1        0.0588
     19 S          67.2059   92.9995   15.7936 S.2     1  UNL1       -0.0497
     20 C          61.6462   86.2090   11.6604 C.3     1  UNL1        0.0678
     21 N          61.9220   85.4226    8.7785 N.3     1  UNL1       -0.3219
     22 C          62.7602   84.7478    9.8235 C.3     1  UNL1        0.0560
     23 C          63.7362   83.6799    9.4276 C.3     1  UNL1        0.0205
     24 C          64.5745   83.0052   10.4727 C.3     1  UNL1        0.0271
     25 C          64.4366   83.3983   11.9136 C.2     1  UNL1       -0.0303
     26 C          63.4605   84.4662   12.3095 C.2     1  UNL1       -0.0246
     27 C          62.6223   85.1410   11.2645 C.3     1  UNL1        0.0473
     28 H          62.1443   85.0347    7.8617 H       1  UNL1        0.1188
     29 H          62.1170   86.4238    8.7805 H       1  UNL1        0.1188
     30 C          63.3226   84.8595   13.7505 C.ar    1  UNL1       -0.0041
     31 C          62.2568   84.2332   14.6001 C.ar    1  UNL1        0.0020
     32 C          62.1189   84.6265   16.0411 C.ar    1  UNL1        0.0296
     33 C          63.0468   85.6459   16.6325 C.ar    1  UNL1        0.1401
     34 F          62.9090   86.0391   18.0734 F       1  UNL1       -0.2042
     35 C          64.1127   86.2721   15.7828 C.ar    1  UNL1        0.0296
     36 C          64.2506   85.8789   14.3419 C.ar    1  UNL1        0.0020
@<TRIPOS>BOND
     1    22    21    1
     2    22    23    1
     3    23    24    1
     4    24    25    1
     5    25    26    2
     6    26    30    1
     7    30    31   ar
     8    31    32   ar
     9    32    33   ar
    10    33    34    1
    11    33    35   ar
    12    35    36   ar
    13    26    27    1
    14    27    20    1
    15    20     1    1
    16     1     2    1
    17     2     3   ar
    18     3     4   ar
    19     4     5    1
    20     4     6   ar
    21     6    10    1
    22    10    11    2
    23    10    12    2
    24    10    13    1
    25    13    15    1
    26    15    16   ar
    27    16    17   ar
    28    17    18   ar
    29    18    19   ar
    30     6     7   ar
    31     7     8   ar
    32     8     9    1
    33    27    22    1
    34     8     2   ar
    35    36    30   ar
    36    19    15   ar
    37    21    28    1
    38    21    29    1
    39    13    14    1
@<TRIPOS>MOLECULE
*****
 36 39 0 0 0
SMALL
GASTEIGER

@<TRIPOS>ATOM
      1 S          64.2910   89.9140   15.0059 S.3     1  UNL1       -0.1124
      2 C          63.9733   88.4505   15.0895 C.ar    1  UNL1        0.0381
      3 C          64.2145   87.5618   13.9054 C.ar    1  UNL1        0.0380
      4 C          63.8968   86.0982   13.9890 C.ar    1  UNL1        0.1594
      5 F          64.1380   85.2095   12.8049 F       1  UNL1       -0.2027
      6 C          63.3378   85.5233   15.2567 C.ar    1  UNL1        0.1534
      7 C          63.0966   86.4120   16.4408 C.ar    1  UNL1        0.0344
      8 C          63.4143   87.8755   16.3572 C.ar    1  UNL1        0.0648
      9 CL         63.1731   88.7642   17.5413 Cl      1  UNL1       -0.0817
     10 S          63.0201   84.0598   15.3403 S.O2    1  UNL1        0.0772
     11 O          61.5542   84.3767   15.3167 O.2     1  UNL1       -0.1498
     12 O          64.4860   83.7429   15.3639 O.2     1  UNL1       -0.1498
     13 N          62.7023   82.5961   15.4239 N.pl3   1  UNL1       -0.1936
     14 H          62.4982   82.1857   16.2952 H       1  UNL1        0.1758
     15 C          62.6955   81.7579   14.1800 C.ar    1  UNL1        0.1786
     16 N          62.6542   80.2595   14.1267 N.ar    1  UNL1       -0.2214
     17 C          62.6619   79.8464   12.6847 C.ar    1  UNL1        0.1079
     18 C          62.7080   81.0897   11.8467 C.ar    1  UNL1        0.0588
     19 S          62.7288   82.2711   12.7708 S.2     1  UNL1       -0.0497
     20 C          63.5383   90.7915   14.0501 C.3     1  UNL1        0.0678
     21 N          65.8062   92.6431   14.7047 N.3     1  UNL1       -0.3219
     22 C          65.4030   92.4268   13.2762 C.3     1  UNL1        0.0560
     23 C          66.1337   93.1362   12.1750 C.3     1  UNL1        0.0205
     24 C          65.7304   92.9199   10.7465 C.3     1  UNL1        0.0271
     25 C          64.5965   91.9942   10.4192 C.2     1  UNL1       -0.0303
     26 C          63.8658   91.2847   11.5204 C.2     1  UNL1       -0.0246
     27 C          64.2691   91.5010   12.9489 C.3     1  UNL1        0.0473
     28 H          66.5878   93.2974   14.7420 H       1  UNL1        0.1188
     29 H          66.0875   91.7535   15.1170 H       1  UNL1        0.1188
     30 C          62.7318   90.3589   11.1931 C.ar    1  UNL1       -0.0041
     31 C          61.3530   90.9088   10.9778 C.ar    1  UNL1        0.0020
     32 C          60.2190   89.9830   10.6506 C.ar    1  UNL1        0.0296
     33 C          60.4639   88.5074   10.5387 C.ar    1  UNL1        0.1401
     34 F          59.3300   87.5816   10.2114 F       1  UNL1       -0.2042
     35 C          61.8429   87.9575   10.7540 C.ar    1  UNL1        0.0296
     36 C          62.9768   88.8833   11.0812 C.ar    1  UNL1        0.0020
@<TRIPOS>BOND
     1    22    21    1
     2    22    23    1
     3    23    24    1
     4    24    25    1
     5    25    26    2
     6    26    30    1
     7    30    31   ar
     8    31    32   ar
     9    32    33   ar
    10    33    34    1
    11    33    35   ar
    12    35    36   ar
    13    26    27    1
    14    27    20    1
    15    20     1    1
    16     1     2    1
    17     2     3   ar
    18     3     4   ar
    19     4     5    1
    20     4     6   ar
    21     6    10    1
    22    10    11    2
    23    10    12    2
    24    10    13    1
    25    13    15    1
    26    15    16   ar
    27    16    17   ar
    28    17    18   ar
    29    18    19   ar
    30     6     7   ar
    31     7     8   ar
    32     8     9    1
    33    27    22    1
    34     8     2   ar
    35    36    30   ar
    36    19    15   ar
    37    21    28    1
    38    21    29    1
    39    13    14    1
@<TRIPOS>MOLECULE
*****
 36 39 0 0 0
SMALL
GASTEIGER

@<TRIPOS>ATOM
      1 S          61.3095   87.6671   10.9810 S.3     1  UNL1       -0.1124
      2 C          62.2384   88.8149   11.2453 C.ar    1  UNL1        0.0381
      3 C          63.1321   88.7944   12.4498 C.ar    1  UNL1        0.0380
      4 C          64.0610   89.9422   12.7141 C.ar    1  UNL1        0.1594
      5 F          64.9548   89.9217   13.9185 F       1  UNL1       -0.2027
      6 C          64.0961   91.1104   11.7739 C.ar    1  UNL1        0.1534
      7 C          63.2023   91.1309   10.5694 C.ar    1  UNL1        0.0344
      8 C          62.2735   89.9832   10.3051 C.ar    1  UNL1        0.0648
      9 CL         61.3797   90.0037    9.1006 Cl      1  UNL1       -0.0817
     10 S          65.0249   92.2582   12.0382 S.O2    1  UNL1        0.0772
     11 O          65.4701   92.2277   10.6061 O.2     1  UNL1       -0.1498
     12 O          64.5798   92.2886   13.4703 O.2     1  UNL1       -0.1498
     13 N          65.9538   93.4060   12.3025 N.pl3   1  UNL1       -0.1936
     14 H          66.2707   93.5821   13.2178 H       1  UNL1        0.1758
     15 C          66.3999   94.2854   11.1721 C.ar    1  UNL1        0.1786
     16 N          67.5987   94.0594   10.2994 N.ar    1  UNL1       -0.2214
     17 C          67.6652   95.1795    9.3039 C.ar    1  UNL1        0.1079
     18 C          66.5075   96.0978    9.5614 C.ar    1  UNL1        0.0588
     19 S          65.7254   95.5452   10.7161 S.2     1  UNL1       -0.0497
     20 C          61.4724   86.3813   11.7360 C.3     1  UNL1        0.0678
     21 N          61.5979   85.6941    8.8184 N.3     1  UNL1       -0.3219
     22 C          62.5041   85.0006    9.7919 C.3     1  UNL1        0.0560
     23 C          63.4731   83.9635    9.3067 C.3     1  UNL1        0.0205
     24 C          64.3793   83.2700   10.2802 C.3     1  UNL1        0.0271
     25 C          64.3166   83.6135   11.7390 C.2     1  UNL1       -0.0303
     26 C          63.3477   84.6506   12.2242 C.2     1  UNL1       -0.0246
     27 C          62.4414   85.3441   11.2507 C.3     1  UNL1        0.0473
     28 H          61.7743   85.3403    7.8782 H       1  UNL1        0.1188
     29 H          61.7769   86.6980    8.8431 H       1  UNL1        0.1188
     30 C          63.2849   84.9942   13.6830 C.ar    1  UNL1       -0.0041
     31 C          62.3598   84.2406   14.5919 C.ar    1  UNL1        0.0020
     32 C          62.2970   84.5842   16.0507 C.ar    1  UNL1        0.0296
     33 C          63.1594   85.6814   16.6006 C.ar    1  UNL1        0.1401
     34 F          63.0967   86.0251   18.0593 F       1  UNL1       -0.2042
     35 C          64.0846   86.4351   15.6916 C.ar    1  UNL1        0.0296
     36 C          64.1473   86.0915   14.2328 C.ar    1  UNL1        0.0020
@<TRIPOS>BOND
     1    22    21    1
     2    22    23    1
     3    23    24    1
     4    24    25    1
     5    25    26    2
     6    26    30    1
     7    30    31   ar
     8    31    32   ar
     9    32    33   ar
    10    33    34    1
    11    33    35   ar
    12    35    36   ar
    13    26    27    1
    14    27    20    1
    15    20     1    1
    16     1     2    1
    17     2     3   ar
    18     3     4   ar
    19     4     5    1
    20     4     6   ar
    21     6    10    1
    22    10    11    2
    23    10    12    2
    24    10    13    1
    25    13    15    1
    26    15    16   ar
    27    16    17   ar
    28    17    18   ar
    29    18    19   ar
    30     6     7   ar
    31     7     8   ar
    32     8     9    1
    33    27    22    1
    34     8     2   ar
    35    36    30   ar
    36    19    15   ar
    37    21    28    1
    38    21    29    1
    39    13    14    1
@<TRIPOS>MOLECULE
*****
 36 39 0 0 0
SMALL
GASTEIGER

@<TRIPOS>ATOM
      1 S          60.6066   88.1340   11.2821 S.3     1  UNL1       -0.1124
      2 C          61.7190   89.1260   11.4508 C.ar    1  UNL1        0.0381
      3 C          62.6718   88.9958   12.6020 C.ar    1  UNL1        0.0380
      4 C          63.7843   89.9878   12.7707 C.ar    1  UNL1        0.1594
      5 F          64.7371   89.8576   13.9218 F       1  UNL1       -0.2027
      6 C          63.9438   91.1100   11.7883 C.ar    1  UNL1        0.1534
      7 C          62.9909   91.2403   10.6371 C.ar    1  UNL1        0.0344
      8 C          61.8785   90.2483   10.4684 C.ar    1  UNL1        0.0648
      9 CL         60.9257   90.3785    9.3173 Cl      1  UNL1       -0.0817
     10 S          65.0562   92.1020   11.9570 S.O2    1  UNL1        0.0772
     11 O          64.6523   92.3118   13.3862 O.2     1  UNL1       -0.1498
     12 O          65.4601   91.8922   10.5277 O.2     1  UNL1       -0.1498
     13 N          66.1686   93.0940   12.1258 N.pl3   1  UNL1       -0.1936
     14 H          66.6930   93.1086   12.9589 H       1  UNL1        0.1758
     15 C          66.4821   94.0638   11.0252 C.ar    1  UNL1        0.1786
     16 N          67.6846   94.0224   10.1295 N.ar    1  UNL1       -0.2214
     17 C          67.5938   95.1782    9.1778 C.ar    1  UNL1        0.1079
     18 C          66.3352   95.9340    9.4852 C.ar    1  UNL1        0.0588
     19 S          65.6480   95.2453   10.6270 S.2     1  UNL1       -0.0497
     20 C          60.9056   86.6641   11.2844 C.3     1  UNL1        0.0678
     21 N          60.0391   87.4614    8.5251 N.3     1  UNL1       -0.3219
     22 C          61.1083   86.4249    8.7053 C.3     1  UNL1        0.0560
     23 C          61.7443   85.7871    7.5058 C.3     1  UNL1        0.0205
     24 C          62.8135   84.7507    7.6860 C.3     1  UNL1        0.0271
     25 C          63.2468   84.3520    9.0656 C.2     1  UNL1       -0.0303
     26 C          62.6108   84.9898   10.2650 C.2     1  UNL1       -0.0246
     27 C          61.5416   86.0263   10.0849 C.3     1  UNL1        0.0473
     28 H          59.8717   87.6078    7.5297 H       1  UNL1        0.1188
     29 H          60.3396   88.3377    8.9518 H       1  UNL1        0.1188
     30 C          63.0441   84.5912   11.6447 C.ar    1  UNL1       -0.0041
     31 C          63.4757   85.6391   12.6273 C.ar    1  UNL1        0.0020
     32 C          63.9090   85.2405   14.0070 C.ar    1  UNL1        0.0296
     33 C          63.9107   83.7939   14.4040 C.ar    1  UNL1        0.1401
     34 F          64.3439   83.3953   15.7836 F       1  UNL1       -0.2042
     35 C          63.4790   82.7460   13.4212 C.ar    1  UNL1        0.0296
     36 C          63.0458   83.1447   12.0416 C.ar    1  UNL1        0.0020
@<TRIPOS>BOND
     1    22    21    1
     2    22    23    1
     3    23    24    1
     4    24    25    1
     5    25    26    2
     6    26    30    1
     7    30    31   ar
     8    31    32   ar
     9    32    33   ar
    10    33    34    1
    11    33    35   ar
    12    35    36   ar
    13    26    27    1
    14    27    20    1
    15    20     1    1
    16     1     2    1
    17     2     3   ar
    18     3     4   ar
    19     4     5    1
    20     4     6   ar
    21     6    10    1
    22    10    11    2
    23    10    12    2
    24    10    13    1
    25    13    15    1
    26    15    16   ar
    27    16    17   ar
    28    17    18   ar
    29    18    19   ar
    30     6     7   ar
    31     7     8   ar
    32     8     9    1
    33    27    22    1
    34     8     2   ar
    35    36    30   ar
    36    19    15   ar
    37    21    28    1
    38    21    29    1
    39    13    14    1
@<TRIPOS>MOLECULE
*****
 36 39 0 0 0
SMALL
GASTEIGER

@<TRIPOS>ATOM
      1 S          63.3714   87.7903   13.8700 S.3     1  UNL1       -0.1124
      2 C          63.9694   89.1323   13.5677 C.ar    1  UNL1        0.0381
      3 C          65.0463   89.6896   14.4506 C.ar    1  UNL1        0.0380
      4 C          65.6443   91.0317   14.1482 C.ar    1  UNL1        0.1594
      5 F          66.7213   91.5890   15.0312 F       1  UNL1       -0.2027
      6 C          65.1653   91.8164   12.9630 C.ar    1  UNL1        0.1534
      7 C          64.0884   91.2591   12.0801 C.ar    1  UNL1        0.0344
      8 C          63.4904   89.9171   12.3824 C.ar    1  UNL1        0.0648
      9 CL         62.4134   89.3598   11.4995 Cl      1  UNL1       -0.0817
     10 S          65.7633   93.1584   12.6607 S.O2    1  UNL1        0.0772
     11 O          65.7489   93.4941   14.1225 O.2     1  UNL1       -0.1498
     12 O          65.7777   92.8226   11.1989 O.2     1  UNL1       -0.1498
     13 N          66.3614   94.5004   12.3584 N.pl3   1  UNL1       -0.1936
     14 H          66.5665   95.1244   13.0918 H       1  UNL1        0.1758
     15 C          66.6468   94.8917   10.9388 C.ar    1  UNL1        0.1786
     16 N          67.7314   94.3274   10.0697 N.ar    1  UNL1       -0.2214
     17 C          67.6528   95.0030    8.7328 C.ar    1  UNL1        0.1079
     18 C          66.5195   95.9848    8.7755 C.ar    1  UNL1        0.0588
     19 S          65.8978   95.9161   10.1389 S.2     1  UNL1       -0.0497
     20 C          63.9661   86.5515   13.2686 C.3     1  UNL1        0.0678
     21 N          64.4398   85.6335   16.0851 N.3     1  UNL1       -0.3219
     22 C          63.7230   84.7409   15.1159 C.3     1  UNL1        0.0560
     23 C          63.2431   83.3893   15.5549 C.3     1  UNL1        0.0205
     24 C          62.5264   82.4966   14.5856 C.3     1  UNL1        0.0271
     25 C          62.2895   82.9556   13.1774 C.2     1  UNL1       -0.0303
     26 C          62.7694   84.3072   12.7384 C.2     1  UNL1       -0.0246
     27 C          63.4862   85.1998   13.7077 C.3     1  UNL1        0.0473
     28 H          64.5123   85.1657   16.9886 H       1  UNL1        0.1188
     29 H          63.9198   86.5043   16.1939 H       1  UNL1        0.1188
     30 C          62.5326   84.7662   11.3301 C.ar    1  UNL1       -0.0041
     31 C          61.4668   85.7815   11.0414 C.ar    1  UNL1        0.0020
     32 C          61.2300   86.2405    9.6331 C.ar    1  UNL1        0.0296
     33 C          62.0589   85.6843    8.5135 C.ar    1  UNL1        0.1401
     34 F          61.8221   86.1433    7.1053 F       1  UNL1       -0.2042
     35 C          63.1248   84.6690    8.8023 C.ar    1  UNL1        0.0296
     36 C          63.3615   84.2100   10.2105 C.ar    1  UNL1        0.0020
@<TRIPOS>BOND
     1    22    21    1
     2    22    23    1
     3    23    24    1
     4    24    25    1
     5    25    26    2
     6    26    30    1
     7    30    31   ar
     8    31    32   ar
     9    32    33   ar
    10    33    34    1
    11    33    35   ar
    12    35    36   ar
    13    26    27    1
    14    27    20    1
    15    20     1    1
    16     1     2    1
    17     2     3   ar
    18     3     4   ar
    19     4     5    1
    20     4     6   ar
    21     6    10    1
    22    10    11    2
    23    10    12    2
    24    10    13    1
    25    13    15    1
    26    15    16   ar
    27    16    17   ar
    28    17    18   ar
    29    18    19   ar
    30     6     7   ar
    31     7     8   ar
    32     8     9    1
    33    27    22    1
    34     8     2   ar
    35    36    30   ar
    36    19    15   ar
    37    21    28    1
    38    21    29    1
    39    13    14    1
@<TRIPOS>MOLECULE
*****
 36 39 0 0 0
SMALL
GASTEIGER

@<TRIPOS>ATOM
      1 S          60.3278   88.3316   11.1129 S.3     1  UNL1       -0.1124
      2 C          61.4791   89.2685   11.3290 C.ar    1  UNL1        0.0381
      3 C          62.2112   89.2678   12.6382 C.ar    1  UNL1        0.0380
      4 C          63.3625   90.2048   12.8542 C.ar    1  UNL1        0.1594
      5 F          64.0946   90.2040   14.1634 F       1  UNL1       -0.2027
      6 C          63.7817   91.1425   11.7611 C.ar    1  UNL1        0.1534
      7 C          63.0496   91.1432   10.4519 C.ar    1  UNL1        0.0344
      8 C          61.8983   90.2063   10.2358 C.ar    1  UNL1        0.0648
      9 CL         61.1662   90.2070    8.9266 Cl      1  UNL1       -0.0817
     10 S          64.9329   92.0794   11.9771 S.O2    1  UNL1        0.0772
     11 O          64.5339   92.2382   13.4143 O.2     1  UNL1       -0.1498
     12 O          65.3319   91.9205   10.5400 O.2     1  UNL1       -0.1498
     13 N          66.0842   93.0164   12.1933 N.pl3   1  UNL1       -0.1936
     14 H          66.3219   93.6725   11.4989 H       1  UNL1        0.1758
     15 C          66.8733   92.9535   13.4674 C.ar    1  UNL1        0.1786
     16 N          66.8244   93.9529   14.5849 N.ar    1  UNL1       -0.2214
     17 C          67.7707   93.4974   15.6559 C.ar    1  UNL1        0.1079
     18 C          68.4045   92.2164   15.2003 C.ar    1  UNL1        0.0588
     19 S          67.8499   91.8803   13.8477 S.2     1  UNL1       -0.0497
     20 C          60.5513   86.8487   11.1455 C.3     1  UNL1        0.0678
     21 N          59.7254   87.2515    8.2897 N.3     1  UNL1       -0.3219
     22 C          60.9043   86.3826    8.6141 C.3     1  UNL1        0.0560
     23 C          61.6703   85.7152    7.5106 C.3     1  UNL1        0.0205
     24 C          62.8492   84.8463    7.8350 C.3     1  UNL1        0.0271
     25 C          63.2621   84.6449    9.2628 C.2     1  UNL1       -0.0303
     26 C          62.4962   85.3123   10.3663 C.2     1  UNL1       -0.0246
     27 C          61.3173   86.1812   10.0419 C.3     1  UNL1        0.0473
     28 H          59.5889   87.2760    7.2792 H       1  UNL1        0.1188
     29 H          59.8952   88.1970    8.6328 H       1  UNL1        0.1188
     30 C          62.9091   85.1110   11.7943 C.ar    1  UNL1       -0.0041
     31 C          63.4963   86.2505   12.5730 C.ar    1  UNL1        0.0020
     32 C          63.9093   86.0491   14.0010 C.ar    1  UNL1        0.0296
     33 C          63.7350   84.7081   14.6501 C.ar    1  UNL1        0.1401
     34 F          64.1479   84.5067   16.0780 F       1  UNL1       -0.2042
     35 C          63.1477   83.5685   13.8713 C.ar    1  UNL1        0.0296
     36 C          62.7348   83.7700   12.4434 C.ar    1  UNL1        0.0020
@<TRIPOS>BOND
     1    22    21    1
     2    22    23    1
     3    23    24    1
     4    24    25    1
     5    25    26    2
     6    26    30    1
     7    30    31   ar
     8    31    32   ar
     9    32    33   ar
    10    33    34    1
    11    33    35   ar
    12    35    36   ar
    13    26    27    1
    14    27    20    1
    15    20     1    1
    16     1     2    1
    17     2     3   ar
    18     3     4   ar
    19     4     5    1
    20     4     6   ar
    21     6    10    1
    22    10    11    2
    23    10    12    2
    24    10    13    1
    25    13    15    1
    26    15    16   ar
    27    16    17   ar
    28    17    18   ar
    29    18    19   ar
    30     6     7   ar
    31     7     8   ar
    32     8     9    1
    33    27    22    1
    34     8     2   ar
    35    36    30   ar
    36    19    15   ar
    37    21    28    1
    38    21    29    1
    39    13    14    1
@<TRIPOS>MOLECULE
*****
 36 39 0 0 0
SMALL
GASTEIGER

@<TRIPOS>ATOM
      1 S          63.2584   90.8677   12.9325 S.3     1  UNL1       -0.1124
      2 C          63.0729   89.4180   12.5950 C.ar    1  UNL1        0.0381
      3 C          63.7624   88.3641   13.4097 C.ar    1  UNL1        0.0380
      4 C          63.5768   86.9143   13.0721 C.ar    1  UNL1        0.1594
      5 F          64.2663   85.8604   13.8868 F       1  UNL1       -0.2027
      6 C          62.7018   86.5186   11.9199 C.ar    1  UNL1        0.1534
      7 C          62.0123   87.5725   11.1052 C.ar    1  UNL1        0.0344
      8 C          62.1978   89.0222   11.4427 C.ar    1  UNL1        0.0648
      9 CL         61.5083   90.0762   10.6279 Cl      1  UNL1       -0.0817
     10 S          62.5162   85.0689   11.5824 S.O2    1  UNL1        0.0772
     11 O          62.0210   84.8083   12.9741 O.2     1  UNL1       -0.1498
     12 O          63.0114   85.3295   10.1907 O.2     1  UNL1       -0.1498
     13 N          62.3307   83.6191   11.2449 N.pl3   1  UNL1       -0.1936
     14 H          61.9249   83.3618   10.3857 H       1  UNL1        0.1758
     15 C          62.7634   82.5616   12.2167 C.ar    1  UNL1        0.1786
     16 N          61.8670   81.5714   12.8993 N.ar    1  UNL1       -0.2214
     17 C          62.7181   80.7064   13.7809 C.ar    1  UNL1        0.1079
     18 C          64.1406   81.1619   13.6432 C.ar    1  UNL1        0.0588
     19 S          64.1687   82.3085   12.6764 S.2     1  UNL1       -0.0497
     20 C          64.5479   91.5567   12.5973 C.3     1  UNL1        0.0678
     21 N          63.7733   91.1363   15.4650 N.3     1  UNL1       -0.3219
     22 C          65.0532   91.8429   15.1297 C.3     1  UNL1        0.0560
     23 C          65.9459   92.3393   16.2282 C.3     1  UNL1        0.0205
     24 C          67.2259   93.0459   15.8930 C.3     1  UNL1        0.0271
     25 C          67.6132   93.2561   14.4592 C.2     1  UNL1       -0.0303
     26 C          66.7206   92.7597   13.3607 C.2     1  UNL1       -0.0246
     27 C          65.4406   92.0531   13.6959 C.3     1  UNL1        0.0473
     28 H          63.6702   91.0821   16.4783 H       1  UNL1        0.1188
     29 H          63.7925   90.1943   15.0743 H       1  UNL1        0.1188
     30 C          67.1079   92.9699   11.9268 C.ar    1  UNL1       -0.0041
     31 C          66.6048   94.1710   11.1824 C.ar    1  UNL1        0.0020
     32 C          66.9921   94.3812    9.7485 C.ar    1  UNL1        0.0296
     33 C          67.8825   93.3902    9.0592 C.ar    1  UNL1        0.1401
     34 F          68.2699   93.6004    7.6254 F       1  UNL1       -0.2042
     35 C          68.3856   92.1891    9.8037 C.ar    1  UNL1        0.0296
     36 C          67.9983   91.9790   11.2375 C.ar    1  UNL1        0.0020
@<TRIPOS>BOND
     1    22    21    1
     2    22    23    1
     3    23    24    1
     4    24    25    1
     5    25    26    2
     6    26    30    1
     7    30    31   ar
     8    31    32   ar
     9    32    33   ar
    10    33    34    1
    11    33    35   ar
    12    35    36   ar
    13    26    27    1
    14    27    20    1
    15    20     1    1
    16     1     2    1
    17     2     3   ar
    18     3     4   ar
    19     4     5    1
    20     4     6   ar
    21     6    10    1
    22    10    11    2
    23    10    12    2
    24    10    13    1
    25    13    15    1
    26    15    16   ar
    27    16    17   ar
    28    17    18   ar
    29    18    19   ar
    30     6     7   ar
    31     7     8   ar
    32     8     9    1
    33    27    22    1
    34     8     2   ar
    35    36    30   ar
    36    19    15   ar
    37    21    28    1
    38    21    29    1
    39    13    14    1
@<TRIPOS>MOLECULE
*****
 36 39 0 0 0
SMALL
GASTEIGER

@<TRIPOS>ATOM
      1 S          62.5149   84.8693   11.5849 S.3     1  UNL1       -0.1124
      2 C          62.8123   86.2932   11.9510 C.ar    1  UNL1        0.0381
      3 C          63.6531   86.5980   13.1552 C.ar    1  UNL1        0.0380
      4 C          63.9505   88.0220   13.5213 C.ar    1  UNL1        0.1594
      5 F          64.7914   88.3268   14.7255 F       1  UNL1       -0.2027
      6 C          63.4072   89.1410   12.6832 C.ar    1  UNL1        0.1534
      7 C          62.5664   88.8362   11.4790 C.ar    1  UNL1        0.0344
      8 C          62.2689   87.4123   11.1129 C.ar    1  UNL1        0.0648
      9 CL         61.4281   87.1075    9.9087 Cl      1  UNL1       -0.0817
     10 S          63.7046   90.5649   13.0493 S.O2    1  UNL1        0.0772
     11 O          64.3170   90.7844   11.6978 O.2     1  UNL1       -0.1498
     12 O          63.0922   90.3453   14.4009 O.2     1  UNL1       -0.1498
     13 N          64.0021   91.9888   13.4154 N.pl3   1  UNL1       -0.1936
     14 H          63.3210   92.6857   13.2750 H       1  UNL1        0.1758
     15 C          65.3372   92.3508   13.9954 C.ar    1  UNL1        0.1786
     16 N          65.9418   93.7232   14.0274 N.ar    1  UNL1       -0.2214
     17 C          67.2804   93.6246   14.6970 C.ar    1  UNL1        0.1079
     18 C          67.5032   92.1913   15.0788 C.ar    1  UNL1        0.0588
     19 S          66.3023   91.4039   14.6452 S.2     1  UNL1       -0.0497
     20 C          63.5356   83.8003   11.8404 C.3     1  UNL1        0.0678
     21 N          63.2678   81.4450   10.0016 N.3     1  UNL1       -0.3219
     22 C          62.9738   81.2916   11.4645 C.3     1  UNL1        0.0560
     23 C          62.5460   79.9607   12.0081 C.3     1  UNL1        0.0205
     24 C          62.2520   79.8074   13.4710 C.3     1  UNL1        0.0271
     25 C          62.3859   80.9850   14.3903 C.2     1  UNL1       -0.0303
     26 C          62.8138   82.3159   13.8468 C.2     1  UNL1       -0.0246
     27 C          63.1077   82.4692   12.3839 C.3     1  UNL1        0.0473
     28 H          63.1265   80.5512    9.5309 H       1  UNL1        0.1188
     29 H          64.2350   81.7448    9.8788 H       1  UNL1        0.1188
     30 C          62.9477   83.4936   14.7662 C.ar    1  UNL1       -0.0041
     31 C          64.3084   83.9813   15.1670 C.ar    1  UNL1        0.0020
     32 C          64.4423   85.1589   16.0863 C.ar    1  UNL1        0.0296
     33 C          63.2155   85.8489   16.6049 C.ar    1  UNL1        0.1401
     34 F          63.3493   87.0266   17.5242 F       1  UNL1       -0.2042
     35 C          61.8547   85.3612   16.2040 C.ar    1  UNL1        0.0296
     36 C          61.7209   84.1836   15.2847 C.ar    1  UNL1        0.0020
@<TRIPOS>BOND
     1    22    21    1
     2    22    23    1
     3    23    24    1
     4    24    25    1
     5    25    26    2
     6    26    30    1
     7    30    31   ar
     8    31    32   ar
     9    32    33   ar
    10    33    34    1
    11    33    35   ar
    12    35    36   ar
    13    26    27    1
    14    27    20    1
    15    20     1    1
    16     1     2    1
    17     2     3   ar
    18     3     4   ar
    19     4     5    1
    20     4     6   ar
    21     6    10    1
    22    10    11    2
    23    10    12    2
    24    10    13    1
    25    13    15    1
    26    15    16   ar
    27    16    17   ar
    28    17    18   ar
    29    18    19   ar
    30     6     7   ar
    31     7     8   ar
    32     8     9    1
    33    27    22    1
    34     8     2   ar
    35    36    30   ar
    36    19    15   ar
    37    21    28    1
    38    21    29    1
    39    13    14    1
@<TRIPOS>MOLECULE
*****
 36 39 0 0 0
SMALL
GASTEIGER

@<TRIPOS>ATOM
      1 S          62.7157   89.3604   10.4294 S.3     1  UNL1       -0.1124
      2 C          63.3860   90.0111   11.6029 C.ar    1  UNL1        0.0381
      3 C          63.4556   89.2947   12.9190 C.ar    1  UNL1        0.0380
      4 C          64.1260   89.9454   14.0926 C.ar    1  UNL1        0.1594
      5 F          64.1956   89.2290   15.4086 F       1  UNL1       -0.2027
      6 C          64.7267   91.3124   13.9501 C.ar    1  UNL1        0.1534
      7 C          64.6571   92.0288   12.6341 C.ar    1  UNL1        0.0344
      8 C          63.9867   91.3782   11.4605 C.ar    1  UNL1        0.0648
      9 CL         63.9171   92.0946   10.1445 Cl      1  UNL1       -0.0817
     10 S          65.3970   91.9630   15.1237 S.O2    1  UNL1        0.0772
     11 O          64.1208   91.8670   15.9059 O.2     1  UNL1       -0.1498
     12 O          66.6733   92.0591   14.3414 O.2     1  UNL1       -0.1498
     13 N          66.0673   92.6137   16.2973 N.pl3   1  UNL1       -0.1936
     14 H          65.5540   92.7996   17.1166 H       1  UNL1        0.1758
     15 C          67.5197   92.9811   16.2227 C.ar    1  UNL1        0.1786
     16 N          68.0702   94.3516   15.9606 N.ar    1  UNL1       -0.2214
     17 C          69.5674   94.2600   15.9729 C.ar    1  UNL1        0.1079
     18 C          69.9422   92.8329   16.2426 C.ar    1  UNL1        0.0588
     19 S          68.6767   92.0424   16.3969 S.2     1  UNL1       -0.0497
     20 C          61.5888   88.3952   10.6496 C.3     1  UNL1        0.0678
     21 N          59.7297   90.1976    9.1344 N.3     1  UNL1       -0.3219
     22 C          59.8877   88.7644    8.7207 C.3     1  UNL1        0.0560
     23 C          59.1163   88.2324    7.5495 C.3     1  UNL1        0.0205
     24 C          59.2743   86.7993    7.1358 C.3     1  UNL1        0.0271
     25 C          60.2038   85.8981    7.8934 C.2     1  UNL1       -0.0303
     26 C          60.9753   86.4301    9.0646 C.2     1  UNL1       -0.0246
     27 C          60.8172   87.8633    9.4783 C.3     1  UNL1        0.0473
     28 H          59.0643   90.6591    8.5142 H       1  UNL1        0.1188
     29 H          60.6321   90.6696    9.0766 H       1  UNL1        0.1188
     30 C          61.9048   85.5290    9.8222 C.ar    1  UNL1       -0.0041
     31 C          62.9312   84.7201    9.0858 C.ar    1  UNL1        0.0020
     32 C          63.8607   83.8189    9.8434 C.ar    1  UNL1        0.0296
     33 C          63.7639   83.7267   11.3374 C.ar    1  UNL1        0.1401
     34 F          64.6934   82.8256   12.0950 F       1  UNL1       -0.2042
     35 C          62.7375   84.5356   12.0738 C.ar    1  UNL1        0.0296
     36 C          61.8080   85.4367   11.3162 C.ar    1  UNL1        0.0020
@<TRIPOS>BOND
     1    22    21    1
     2    22    23    1
     3    23    24    1
     4    24    25    1
     5    25    26    2
     6    26    30    1
     7    30    31   ar
     8    31    32   ar
     9    32    33   ar
    10    33    34    1
    11    33    35   ar
    12    35    36   ar
    13    26    27    1
    14    27    20    1
    15    20     1    1
    16     1     2    1
    17     2     3   ar
    18     3     4   ar
    19     4     5    1
    20     4     6   ar
    21     6    10    1
    22    10    11    2
    23    10    12    2
    24    10    13    1
    25    13    15    1
    26    15    16   ar
    27    16    17   ar
    28    17    18   ar
    29    18    19   ar
    30     6     7   ar
    31     7     8   ar
    32     8     9    1
    33    27    22    1
    34     8     2   ar
    35    36    30   ar
    36    19    15   ar
    37    21    28    1
    38    21    29    1
    39    13    14    1
