@<TRIPOS>MOLECULE
*****
 43 48 0 0 0
SMALL
GASTEIGER

@<TRIPOS>ATOM
      1 C          64.1333   89.1807   13.8814 C.ar    1  UNL1        0.0568
      2 C          64.2362   88.8855   15.3484 C.ar    1  UNL1        0.1236
      3 N          63.7035   87.5028   15.5814 N.ar    1  UNL1       -0.1610
      4 N          63.2714   86.9434   14.2584 N.ar    1  UNL1       -0.1987
      5 C          62.6705   85.6238   13.8746 C.ar    1  UNL1        0.1344
      6 C          62.3351   85.3411   12.4401 C.ar    1  UNL1        0.0682
      7 C          62.6007   86.3781   11.3894 C.ar    1  UNL1        0.1330
      8 N          63.2018   87.6979   11.7732 N.ar    1  UNL1       -0.2119
      9 C          63.5371   87.9805   13.2076 C.ar    1  UNL1        0.1679
     10 C          66.9822   93.5262   13.8424 C.3     1  UNL1        0.0312
     11 C          65.9775   92.6257   13.1869 C.ar    1  UNL1       -0.0175
     12 C          65.5577   91.3535   13.8618 C.ar    1  UNL1       -0.0040
     13 C          64.5530   90.4529   13.2064 C.ar    1  UNL1        0.0042
     14 C          63.9680   90.8245   11.8761 C.ar    1  UNL1        0.0003
     15 C          64.3878   92.0967   11.2013 C.ar    1  UNL1        0.0042
     16 C          65.3925   92.9972   11.8566 C.ar    1  UNL1        0.0494
     17 C          65.8122   94.2694   11.1817 C.2     1  UNL1        0.2455
     18 O          65.8952   95.5437   11.9686 O.2     1  UNL1       -0.2702
     19 N          66.1488   94.2672    9.7200 N.am    1  UNL1       -0.3025
     20 H          66.0943   93.4308    9.2036 H       1  UNL1        0.1497
     21 C          66.5685   95.5393    9.0451 C.3     1  UNL1        0.0720
     22 C          66.4463   96.5066    7.9052 C.3     1  UNL1        0.0213
     23 C          67.4176   96.7755    9.0160 C.3     1  UNL1        0.0213
     24 N          62.4048   84.5867   14.9253 N.pl3   1  UNL1       -0.3180
     25 H          61.6680   84.7126   15.5660 H       1  UNL1        0.1482
     26 C          63.2619   83.3579   14.9999 C.3     1  UNL1        0.0883
     27 C          63.0742   82.2511   14.0051 C.3     1  UNL1        0.0246
     28 C          63.8243   82.2749   12.7063 C.3     1  UNL1        0.0338
     29 C          63.6366   81.1680   11.7115 C.3     1  UNL1        0.1422
     30 O          62.6989   80.0375   12.0154 O.3     1  UNL1       -0.3538
     31 C          61.9488   80.0137   13.3142 C.3     1  UNL1        0.1422
     32 C          62.1365   81.1205   14.3091 C.3     1  UNL1        0.0338
     33 N          62.2654   86.0955    9.9550 N.pl3   1  UNL1       -0.3174
     34 H          62.7642   85.4065    9.4594 H       1  UNL1        0.1482
     35 C          61.1701   86.8628    9.2756 C.3     1  UNL1        0.0948
     36 C          60.3732   86.2205    8.1791 C.3     1  UNL1        0.1047
     37 C          59.1384   86.9179    8.6680 C.3     1  UNL1        0.0310
     38 C          61.6079   85.5232    7.6902 C.3     1  UNL1        0.0310
     39 O          59.5762   85.5782    7.0826 O.3     1  UNL1       -0.3851
     40 H          58.6516   85.8649    7.1443 H       1  UNL1        0.2103
     41 C          60.8717   88.2724    9.6927 C.3     1  UNL1        0.0203
     42 C          60.1770   89.2369   10.6076 C.3     1  UNL1        0.0018
     43 C          61.0494   89.7493    9.5003 C.3     1  UNL1        0.0018
@<TRIPOS>BOND
     1    10    11    1
     2    11    12   ar
     3    12    13   ar
     4    13     1    1
     5     1     2   ar
     6     2     3   ar
     7     3     4   ar
     8     4     5   ar
     9     5    24    1
    10    24    26    1
    11    26    27    1
    12    27    28    1
    13    28    29    1
    14    29    30    1
    15    30    31    1
    16    31    32    1
    17     5     6   ar
    18     6     7   ar
    19     7    33    1
    20    35    33    1
    21    35    41    1
    22    41    42    1
    23    42    43    1
    24    35    36    1
    25    36    37    1
    26    36    38    1
    27    36    39    1
    28     7     8   ar
    29     8     9   ar
    30    13    14   ar
    31    14    15   ar
    32    15    16   ar
    33    16    17    1
    34    17    18    2
    35    17    19   am
    36    19    21    1
    37    21    22    1
    38    22    23    1
    39    16    11   ar
    40    23    21    1
    41     9     1   ar
    42     9     4   ar
    43    32    27    1
    44    43    41    1
    45    24    25    1
    46    33    34    1
    47    39    40    1
    48    19    20    1
@<TRIPOS>MOLECULE
*****
 43 48 0 0 0
SMALL
GASTEIGER

@<TRIPOS>ATOM
      1 C          64.2607   88.2926   13.9260 C.ar    1  UNL1        0.0568
      2 C          65.1540   89.0092   14.8947 C.ar    1  UNL1        0.1236
      3 N          65.3077   90.4249   14.4235 N.ar    1  UNL1       -0.1610
      4 N          64.5094   90.5833   13.1634 N.ar    1  UNL1       -0.1987
      5 C          64.2881   91.7572   12.2564 C.ar    1  UNL1        0.1344
      6 C          63.4197   91.6134   11.0417 C.ar    1  UNL1        0.0682
      7 C          62.7726   90.2955   10.7342 C.ar    1  UNL1        0.1330
      8 N          62.9940   89.1215   11.6414 N.ar    1  UNL1       -0.2119
      9 C          63.8623   89.2654   12.8560 C.ar    1  UNL1        0.1679
     10 C          62.5738   83.9519   11.6210 C.3     1  UNL1        0.0312
     11 C          62.9962   84.6851   12.8595 C.ar    1  UNL1       -0.0175
     12 C          63.4173   86.1222   12.7735 C.ar    1  UNL1       -0.0040
     13 C          63.8397   86.8555   14.0120 C.ar    1  UNL1        0.0042
     14 C          63.8411   86.1516   15.3366 C.ar    1  UNL1        0.0003
     15 C          63.4200   84.7144   15.4226 C.ar    1  UNL1        0.0042
     16 C          62.9976   83.9812   14.1841 C.ar    1  UNL1        0.0494
     17 C          62.5766   82.5440   14.2702 C.2     1  UNL1        0.2455
     18 O          63.5905   81.4829   14.5799 O.2     1  UNL1       -0.2702
     19 N          61.1418   82.1681   14.0465 N.am    1  UNL1       -0.3025
     20 H          60.4764   82.8647   13.8432 H       1  UNL1        0.1497
     21 C          60.7208   80.7310   14.1326 C.3     1  UNL1        0.0720
     22 C          61.0628   79.2716   14.0773 C.3     1  UNL1        0.0213
     23 C          59.6494   79.7013   14.3370 C.3     1  UNL1        0.0213
     24 N          64.9352   93.0751   12.5639 N.pl3   1  UNL1       -0.3180
     25 H          64.3898   93.8271   12.8897 H       1  UNL1        0.1482
     26 C          66.4133   93.2471   12.3748 C.3     1  UNL1        0.0883
     27 C          66.9916   93.2983   10.9917 C.3     1  UNL1        0.0246
     28 C          66.7133   94.4762   10.1056 C.3     1  UNL1        0.0338
     29 C          67.2915   94.5274    8.7225 C.3     1  UNL1        0.1422
     30 O          68.1481   93.4008    8.2255 O.3     1  UNL1       -0.3538
     31 C          68.4264   92.2229    9.1116 C.3     1  UNL1        0.1422
     32 C          67.8481   92.1716   10.4947 C.3     1  UNL1        0.0338
     33 N          61.9043   90.1516    9.5197 N.pl3   1  UNL1       -0.3174
     34 H          62.1685   90.5776    8.6724 H       1  UNL1        0.1482
     35 C          60.6333   89.3586    9.5961 C.3     1  UNL1        0.0948
     36 C          60.0483   89.0062   10.9315 C.3     1  UNL1        0.1047
     37 C          60.4426   87.5736   10.7261 C.3     1  UNL1        0.0310
     38 C          59.6541   90.4387   11.1369 C.3     1  UNL1        0.0310
     39 O          59.4633   88.6536   12.2671 O.3     1  UNL1       -0.3851
     40 H          59.5776   87.7042   12.4297 H       1  UNL1        0.2103
     41 C          59.9473   88.9181    8.3370 C.3     1  UNL1        0.0203
     42 C          59.3137   87.8367    7.5130 C.3     1  UNL1        0.0018
     43 C          59.3927   89.2366    6.9802 C.3     1  UNL1        0.0018
@<TRIPOS>BOND
     1    10    11    1
     2    11    12   ar
     3    12    13   ar
     4    13     1    1
     5     1     2   ar
     6     2     3   ar
     7     3     4   ar
     8     4     5   ar
     9     5    24    1
    10    24    26    1
    11    26    27    1
    12    27    28    1
    13    28    29    1
    14    29    30    1
    15    30    31    1
    16    31    32    1
    17     5     6   ar
    18     6     7   ar
    19     7    33    1
    20    35    33    1
    21    35    41    1
    22    41    42    1
    23    42    43    1
    24    35    36    1
    25    36    37    1
    26    36    38    1
    27    36    39    1
    28     7     8   ar
    29     8     9   ar
    30    13    14   ar
    31    14    15   ar
    32    15    16   ar
    33    16    17    1
    34    17    18    2
    35    17    19   am
    36    19    21    1
    37    21    22    1
    38    22    23    1
    39    16    11   ar
    40    23    21    1
    41     9     1   ar
    42     9     4   ar
    43    32    27    1
    44    43    41    1
    45    24    25    1
    46    33    34    1
    47    39    40    1
    48    19    20    1
@<TRIPOS>MOLECULE
*****
 43 48 0 0 0
SMALL
GASTEIGER

@<TRIPOS>ATOM
      1 C          62.2451   86.6196   11.1675 C.ar    1  UNL1        0.0568
      2 C          62.4469   85.1344   11.2257 C.ar    1  UNL1        0.1236
      3 N          63.2694   84.8257   12.4415 N.ar    1  UNL1       -0.1610
      4 N          63.5758   86.1201   13.1348 N.ar    1  UNL1       -0.1987
      5 C          64.3495   86.4323   14.3813 C.ar    1  UNL1        0.1344
      6 C          64.4902   87.8534   14.8405 C.ar    1  UNL1        0.0682
      7 C          63.8572   88.9622   14.0531 C.ar    1  UNL1        0.1330
      8 N          63.0835   88.6498   12.8065 N.ar    1  UNL1       -0.2119
      9 C          62.9428   87.2288   12.3474 C.ar    1  UNL1        0.1679
     10 C          59.0131   86.6088    7.0989 C.3     1  UNL1        0.0312
     11 C          59.8639   87.3594    8.0800 C.ar    1  UNL1       -0.0175
     12 C          60.6291   86.6143    9.1332 C.ar    1  UNL1       -0.0040
     13 C          61.4800   87.3648   10.1144 C.ar    1  UNL1        0.0042
     14 C          61.5657   88.8606   10.0424 C.ar    1  UNL1        0.0003
     15 C          60.8005   89.6058    8.9891 C.ar    1  UNL1        0.0042
     16 C          59.9496   88.8553    8.0080 C.ar    1  UNL1        0.0494
     17 C          59.1844   89.6005    6.9548 C.2     1  UNL1        0.2455
     18 O          57.7302   89.3060    6.7350 O.2     1  UNL1       -0.2702
     19 N          59.8735   90.6401    6.1216 N.am    1  UNL1       -0.3025
     20 H          60.8280   90.8334    6.2660 H       1  UNL1        0.1497
     21 C          59.1084   91.3854    5.0685 C.3     1  UNL1        0.0720
     22 C          57.8007   91.8041    4.4646 C.3     1  UNL1        0.0213
     23 C          59.0908   92.2575    3.8482 C.3     1  UNL1        0.0213
     24 N          64.9825   85.3236   15.1687 N.pl3   1  UNL1       -0.3180
     25 H          65.9604   85.2942   15.2790 H       1  UNL1        0.1482
     26 C          64.1256   84.2596   15.7881 C.3     1  UNL1        0.0883
     27 C          63.5845   83.1455   14.9420 C.3     1  UNL1        0.0246
     28 C          62.1383   82.7608   15.0438 C.3     1  UNL1        0.0338
     29 C          61.5971   81.6467   14.1976 C.3     1  UNL1        0.1422
     30 O          62.5022   80.9174   13.2496 O.3     1  UNL1       -0.3538
     31 C          63.9485   81.3021   13.1477 C.3     1  UNL1        0.1422
     32 C          64.4896   82.4161   13.9939 C.3     1  UNL1        0.0338
     33 N          63.9979   90.3832   14.5122 N.pl3   1  UNL1       -0.3174
     34 H          63.4552   90.7135   15.2643 H       1  UNL1        0.1482
     35 C          64.9654   91.3010   13.8254 C.3     1  UNL1        0.0948
     36 C          66.1383   91.8542   14.5791 C.3     1  UNL1        0.1047
     37 C          65.2756   92.0290   15.7936 C.3     1  UNL1        0.0310
     38 C          67.0011   91.6794   13.3646 C.3     1  UNL1        0.0310
     39 O          67.3114   92.4075   15.3328 O.3     1  UNL1       -0.3851
     40 H          67.0381   92.6333   16.2357 H       1  UNL1        0.2103
     41 C          64.7599   91.6655   12.3850 C.3     1  UNL1        0.0203
     42 C          64.0158   91.4912   11.0943 C.3     1  UNL1        0.0018
     43 C          65.1481   92.4712   11.1808 C.3     1  UNL1        0.0018
@<TRIPOS>BOND
     1    10    11    1
     2    11    12   ar
     3    12    13   ar
     4    13     1    1
     5     1     2   ar
     6     2     3   ar
     7     3     4   ar
     8     4     5   ar
     9     5    24    1
    10    24    26    1
    11    26    27    1
    12    27    28    1
    13    28    29    1
    14    29    30    1
    15    30    31    1
    16    31    32    1
    17     5     6   ar
    18     6     7   ar
    19     7    33    1
    20    35    33    1
    21    35    41    1
    22    41    42    1
    23    42    43    1
    24    35    36    1
    25    36    37    1
    26    36    38    1
    27    36    39    1
    28     7     8   ar
    29     8     9   ar
    30    13    14   ar
    31    14    15   ar
    32    15    16   ar
    33    16    17    1
    34    17    18    2
    35    17    19   am
    36    19    21    1
    37    21    22    1
    38    22    23    1
    39    16    11   ar
    40    23    21    1
    41     9     1   ar
    42     9     4   ar
    43    32    27    1
    44    43    41    1
    45    24    25    1
    46    33    34    1
    47    39    40    1
    48    19    20    1
@<TRIPOS>MOLECULE
*****
 43 48 0 0 0
SMALL
GASTEIGER

@<TRIPOS>ATOM
      1 C          64.2893   88.9111   14.2152 C.ar    1  UNL1        0.0568
      2 C          64.4883   88.5114   15.6471 C.ar    1  UNL1        0.1236
      3 N          63.9434   87.1247   15.8212 N.ar    1  UNL1       -0.1610
      4 N          63.4076   86.6676   14.4969 N.ar    1  UNL1       -0.1987
      5 C          62.7526   85.3886   14.0666 C.ar    1  UNL1        0.1344
      6 C          62.3114   85.2136   12.6436 C.ar    1  UNL1        0.0682
      7 C          62.5252   86.3177   11.6510 C.ar    1  UNL1        0.1330
      8 N          63.1802   87.5967   12.0814 N.ar    1  UNL1       -0.2119
      9 C          63.6214   87.7716   13.5043 C.ar    1  UNL1        0.1679
     10 C          67.2677   93.1689   14.2369 C.3     1  UNL1        0.0312
     11 C          66.1775   92.3495   13.6126 C.ar    1  UNL1       -0.0175
     12 C          65.7785   91.0400   14.2260 C.ar    1  UNL1       -0.0040
     13 C          64.6882   90.2206   13.6017 C.ar    1  UNL1        0.0042
     14 C          63.9968   90.7105   12.3641 C.ar    1  UNL1        0.0003
     15 C          64.3958   92.0200   11.7507 C.ar    1  UNL1        0.0042
     16 C          65.4861   92.8395   12.3749 C.ar    1  UNL1        0.0494
     17 C          65.8849   94.1489   11.7615 C.2     1  UNL1        0.2455
     18 O          66.2136   95.3194   12.6401 O.2     1  UNL1       -0.2702
     19 N          65.9551   94.2878   10.2696 N.am    1  UNL1       -0.3025
     20 H          65.7393   93.5195    9.6930 H       1  UNL1        0.1497
     21 C          66.3540   95.5972    9.6562 C.3     1  UNL1        0.0720
     22 C          67.4106   96.6106    9.3300 C.3     1  UNL1        0.0213
     23 C          65.9882   96.8518    8.9199 C.3     1  UNL1        0.0213
     24 N          62.5388   84.2845   15.0592 N.pl3   1  UNL1       -0.3180
     25 H          61.8394   84.3694   15.7469 H       1  UNL1        0.1482
     26 C          63.3906   83.0510   15.0041 C.3     1  UNL1        0.0883
     27 C          63.1663   82.0322   13.9262 C.3     1  UNL1        0.0246
     28 C          62.3625   80.7993   14.2152 C.3     1  UNL1        0.0338
     29 C          62.1381   79.7805   13.1373 C.3     1  UNL1        0.1422
     30 O          62.7176   79.9947   11.7705 O.3     1  UNL1       -0.3538
     31 C          63.5215   81.2278   11.4815 C.3     1  UNL1        0.1422
     32 C          63.7459   82.2465   12.5593 C.3     1  UNL1        0.0338
     33 N          62.0840   86.1428   10.2281 N.pl3   1  UNL1       -0.3174
     34 H          62.4566   85.4122    9.6835 H       1  UNL1        0.1482
     35 C          61.0751   87.0811    9.6349 C.3     1  UNL1        0.0948
     36 C          60.8995   88.4551   10.2104 C.3     1  UNL1        0.1047
     37 C          62.0545   88.9466    9.3892 C.3     1  UNL1        0.0310
     38 C          59.7446   87.9635   11.0316 C.3     1  UNL1        0.0310
     39 O          60.7239   89.8292   10.7859 O.3     1  UNL1       -0.3851
     40 H          61.3902   90.4250   10.4092 H       1  UNL1        0.2103
     41 C          60.2419   86.6453    8.4663 C.3     1  UNL1        0.0203
     42 C          60.0561   85.7833    7.2528 C.3     1  UNL1        0.0018
     43 C          58.9845   86.7525    7.6555 C.3     1  UNL1        0.0018
@<TRIPOS>BOND
     1    10    11    1
     2    11    12   ar
     3    12    13   ar
     4    13     1    1
     5     1     2   ar
     6     2     3   ar
     7     3     4   ar
     8     4     5   ar
     9     5    24    1
    10    24    26    1
    11    26    27    1
    12    27    28    1
    13    28    29    1
    14    29    30    1
    15    30    31    1
    16    31    32    1
    17     5     6   ar
    18     6     7   ar
    19     7    33    1
    20    35    33    1
    21    35    41    1
    22    41    42    1
    23    42    43    1
    24    35    36    1
    25    36    37    1
    26    36    38    1
    27    36    39    1
    28     7     8   ar
    29     8     9   ar
    30    13    14   ar
    31    14    15   ar
    32    15    16   ar
    33    16    17    1
    34    17    18    2
    35    17    19   am
    36    19    21    1
    37    21    22    1
    38    22    23    1
    39    16    11   ar
    40    23    21    1
    41     9     1   ar
    42     9     4   ar
    43    32    27    1
    44    43    41    1
    45    24    25    1
    46    33    34    1
    47    39    40    1
    48    19    20    1
@<TRIPOS>MOLECULE
*****
 43 48 0 0 0
SMALL
GASTEIGER

@<TRIPOS>ATOM
      1 C          62.6234   89.9580   11.2715 C.ar    1  UNL1        0.0568
      2 C          61.6116   90.4376   10.2734 C.ar    1  UNL1        0.1236
      3 N          60.7888   89.2590    9.8445 N.ar    1  UNL1       -0.1610
      4 N          61.2921   88.0510   10.5776 N.ar    1  UNL1       -0.1987
      5 C          60.8644   86.6135   10.5560 C.ar    1  UNL1        0.1344
      6 C          61.5706   85.6078   11.4163 C.ar    1  UNL1        0.0682
      7 C          62.7044   86.0398   12.2982 C.ar    1  UNL1        0.1330
      8 N          63.1321   87.4774   12.3198 N.ar    1  UNL1       -0.2119
      9 C          62.4259   88.4830   11.4595 C.ar    1  UNL1        0.1679
     10 C          66.2103   93.7135   11.0978 C.3     1  UNL1        0.0312
     11 C          65.4456   92.6825   11.8738 C.ar    1  UNL1       -0.0175
     12 C          64.4169   91.8357   11.1847 C.ar    1  UNL1       -0.0040
     13 C          63.6521   90.8047   11.9606 C.ar    1  UNL1        0.0042
     14 C          63.9160   90.6204   13.4257 C.ar    1  UNL1        0.0003
     15 C          64.9447   91.4671   14.1147 C.ar    1  UNL1        0.0042
     16 C          65.7095   92.4982   13.3388 C.ar    1  UNL1        0.0494
     17 C          66.7382   93.3449   14.0280 C.2     1  UNL1        0.2455
     18 O          66.6816   94.8390   13.9089 O.2     1  UNL1       -0.2702
     19 N          67.8234   92.6974   14.8361 N.am    1  UNL1       -0.3025
     20 H          67.8604   91.7167   14.9143 H       1  UNL1        0.1497
     21 C          68.8521   93.5441   15.5253 C.3     1  UNL1        0.0720
     22 C          70.2885   93.8669   15.8119 C.3     1  UNL1        0.0213
     23 C          69.1972   94.6879   16.4323 C.3     1  UNL1        0.0213
     24 N          59.7305   86.1815    9.6741 N.pl3   1  UNL1       -0.3180
     25 H          58.9149   85.8001   10.0722 H       1  UNL1        0.1482
     26 C          59.8394   86.3306    8.1854 C.3     1  UNL1        0.0883
     27 C          60.9132   85.6000    7.4350 C.3     1  UNL1        0.0246
     28 C          62.3277   85.6274    7.9334 C.3     1  UNL1        0.0338
     29 C          63.4016   84.8968    7.1830 C.3     1  UNL1        0.1422
     30 O          63.0609   84.1389    5.9342 O.3     1  UNL1       -0.3538
     31 C          61.6464   84.1115    5.4358 C.3     1  UNL1        0.1422
     32 C          60.5725   84.8421    6.1862 C.3     1  UNL1        0.0338
     33 N          63.4106   85.0342   13.1585 N.pl3   1  UNL1       -0.3174
     34 H          63.9386   85.3338   13.9336 H       1  UNL1        0.1482
     35 C          63.3123   83.5722   12.8380 C.3     1  UNL1        0.0948
     36 C          62.7813   82.6138   13.8624 C.3     1  UNL1        0.1047
     37 C          62.0329   81.8809   12.7888 C.3     1  UNL1        0.0310
     38 C          63.5297   83.3468   14.9360 C.3     1  UNL1        0.0310
     39 O          62.2502   81.6554   14.8869 O.3     1  UNL1       -0.3851
     40 H          61.6794   81.0019   14.4531 H       1  UNL1        0.2103
     41 C          63.7450   83.0685   11.4930 C.3     1  UNL1        0.0203
     42 C          64.2967   83.3317   10.1232 C.3     1  UNL1        0.0018
     43 C          63.9427   81.9329   10.5332 C.3     1  UNL1        0.0018
@<TRIPOS>BOND
     1    10    11    1
     2    11    12   ar
     3    12    13   ar
     4    13     1    1
     5     1     2   ar
     6     2     3   ar
     7     3     4   ar
     8     4     5   ar
     9     5    24    1
    10    24    26    1
    11    26    27    1
    12    27    28    1
    13    28    29    1
    14    29    30    1
    15    30    31    1
    16    31    32    1
    17     5     6   ar
    18     6     7   ar
    19     7    33    1
    20    35    33    1
    21    35    41    1
    22    41    42    1
    23    42    43    1
    24    35    36    1
    25    36    37    1
    26    36    38    1
    27    36    39    1
    28     7     8   ar
    29     8     9   ar
    30    13    14   ar
    31    14    15   ar
    32    15    16   ar
    33    16    17    1
    34    17    18    2
    35    17    19   am
    36    19    21    1
    37    21    22    1
    38    22    23    1
    39    16    11   ar
    40    23    21    1
    41     9     1   ar
    42     9     4   ar
    43    32    27    1
    44    43    41    1
    45    24    25    1
    46    33    34    1
    47    39    40    1
    48    19    20    1
@<TRIPOS>MOLECULE
*****
 43 48 0 0 0
SMALL
GASTEIGER

@<TRIPOS>ATOM
      1 C          63.6585   86.4318   13.7157 C.ar    1  UNL1        0.0568
      2 C          64.3036   86.9565   14.9641 C.ar    1  UNL1        0.1236
      3 N          64.2849   88.4550   14.9008 N.ar    1  UNL1       -0.1610
      4 N          63.6283   88.8564   13.6132 N.ar    1  UNL1       -0.1987
      5 C          63.3329   90.1990   13.0132 C.ar    1  UNL1        0.1344
      6 C          62.6503   90.2912   11.6806 C.ar    1  UNL1        0.0682
      7 C          62.2631   89.0407   10.9482 C.ar    1  UNL1        0.1330
      8 N          62.5585   87.6981   11.5484 N.ar    1  UNL1       -0.2119
      9 C          63.2411   87.6060   12.8809 C.ar    1  UNL1        0.1679
     10 C          64.4250   82.4492   10.4675 C.3     1  UNL1        0.0312
     11 C          63.8480   82.9952   11.7398 C.ar    1  UNL1       -0.0175
     12 C          64.0417   84.4404   12.0916 C.ar    1  UNL1       -0.0040
     13 C          63.4647   84.9865   13.3640 C.ar    1  UNL1        0.0042
     14 C          62.6939   84.0874   14.2845 C.ar    1  UNL1        0.0003
     15 C          62.5002   82.6421   13.9327 C.ar    1  UNL1        0.0042
     16 C          63.0772   82.0960   12.6603 C.ar    1  UNL1        0.0494
     17 C          62.8834   80.6508   12.3086 C.2     1  UNL1        0.2455
     18 O          62.4201   79.6801   13.3540 O.2     1  UNL1       -0.2702
     19 N          63.1530   80.1763   10.9114 N.am    1  UNL1       -0.3025
     20 H          63.4571   80.8134   10.2252 H       1  UNL1        0.1497
     21 C          62.9592   78.7310   10.5596 C.3     1  UNL1        0.0720
     22 C          62.2979   77.4092   10.8152 C.3     1  UNL1        0.0213
     23 C          63.2849   77.5497    9.6946 C.3     1  UNL1        0.0213
     24 N          63.7201   91.4495   13.7456 N.pl3   1  UNL1       -0.3180
     25 H          63.3840   92.3230   13.4401 H       1  UNL1        0.1482
     26 C          64.6195   91.3691   14.9434 C.3     1  UNL1        0.0883
     27 C          66.0282   91.8774   14.8590 C.3     1  UNL1        0.0246
     28 C          66.6055   92.6782   15.9883 C.3     1  UNL1        0.0338
     29 C          68.0142   93.1865   15.9039 C.3     1  UNL1        0.1422
     30 O          68.8457   92.8940   14.6902 O.3     1  UNL1       -0.3538
     31 C          68.2684   92.0931   13.5608 C.3     1  UNL1        0.1422
     32 C          66.8596   91.5848   13.6452 C.3     1  UNL1        0.0338
     33 N          61.5805   89.1328    9.6157 N.pl3   1  UNL1       -0.3174
     34 H          61.4721   90.0078    9.1776 H       1  UNL1        0.1482
     35 C          61.0631   87.8919    8.9507 C.3     1  UNL1        0.0948
     36 C          59.7671   87.9299    8.1964 C.3     1  UNL1        0.1047
     37 C          59.6721   86.4355    8.2844 C.3     1  UNL1        0.0310
     38 C          59.8622   89.4243    8.1085 C.3     1  UNL1        0.0310
     39 O          58.4711   87.9679    7.4421 O.3     1  UNL1       -0.3851
     40 H          58.1338   87.0650    7.3331 H       1  UNL1        0.2103
     41 C          61.8416   86.6129    9.0400 C.3     1  UNL1        0.0203
     42 C          62.9520   85.7312    8.5505 C.3     1  UNL1        0.0018
     43 C          62.0797   85.2793    9.6840 C.3     1  UNL1        0.0018
@<TRIPOS>BOND
     1    10    11    1
     2    11    12   ar
     3    12    13   ar
     4    13     1    1
     5     1     2   ar
     6     2     3   ar
     7     3     4   ar
     8     4     5   ar
     9     5    24    1
    10    24    26    1
    11    26    27    1
    12    27    28    1
    13    28    29    1
    14    29    30    1
    15    30    31    1
    16    31    32    1
    17     5     6   ar
    18     6     7   ar
    19     7    33    1
    20    35    33    1
    21    35    41    1
    22    41    42    1
    23    42    43    1
    24    35    36    1
    25    36    37    1
    26    36    38    1
    27    36    39    1
    28     7     8   ar
    29     8     9   ar
    30    13    14   ar
    31    14    15   ar
    32    15    16   ar
    33    16    17    1
    34    17    18    2
    35    17    19   am
    36    19    21    1
    37    21    22    1
    38    22    23    1
    39    16    11   ar
    40    23    21    1
    41     9     1   ar
    42     9     4   ar
    43    32    27    1
    44    43    41    1
    45    24    25    1
    46    33    34    1
    47    39    40    1
    48    19    20    1
@<TRIPOS>MOLECULE
*****
 43 48 0 0 0
SMALL
GASTEIGER

@<TRIPOS>ATOM
      1 C          62.1265   89.8888   11.7295 C.ar    1  UNL1        0.0568
      2 C          61.0612   90.6034   10.9520 C.ar    1  UNL1        0.1236
      3 N          60.2474   89.5734   10.2263 N.ar    1  UNL1       -0.1610
      4 N          60.8096   88.2222   10.5553 N.ar    1  UNL1       -0.1987
      5 C          60.4141   86.8396   10.1290 C.ar    1  UNL1        0.1344
      6 C          61.1800   85.6518   10.6317 C.ar    1  UNL1        0.0682
      7 C          62.3414   85.8467   11.5608 C.ar    1  UNL1        0.1330
      8 N          62.7369   87.2295   11.9871 N.ar    1  UNL1       -0.2119
      9 C          61.9710   88.4172   11.4844 C.ar    1  UNL1        0.1679
     10 C          64.1034   90.8115   16.4455 C.3     1  UNL1        0.0312
     11 C          64.1534   90.9941   14.9576 C.ar    1  UNL1       -0.0175
     12 C          63.1150   90.3502   14.0875 C.ar    1  UNL1       -0.0040
     13 C          63.1650   90.5328   12.5995 C.ar    1  UNL1        0.0042
     14 C          64.2535   91.3594   11.9815 C.ar    1  UNL1        0.0003
     15 C          65.2919   92.0033   12.8516 C.ar    1  UNL1        0.0042
     16 C          65.2419   91.8207   14.3396 C.ar    1  UNL1        0.0494
     17 C          66.2804   92.4647   15.2095 C.2     1  UNL1        0.2455
     18 O          65.9663   92.7840   16.6411 O.2     1  UNL1       -0.2702
     19 N          67.6329   92.7893   14.6480 N.am    1  UNL1       -0.3025
     20 H          67.8390   92.5796   13.7084 H       1  UNL1        0.1497
     21 C          68.6714   93.4332   15.5180 C.3     1  UNL1        0.0720
     22 C          69.8474   93.3150   16.4415 C.3     1  UNL1        0.0213
     23 C          69.2940   94.6669   16.1013 C.3     1  UNL1        0.0213
     24 N          59.2527   86.6446    9.1999 N.pl3   1  UNL1       -0.3180
     25 H          58.3353   86.6227    9.5565 H       1  UNL1        0.1482
     26 C          59.4891   86.4830    7.7274 C.3     1  UNL1        0.0883
     27 C          60.6771   85.7083    7.2391 C.3     1  UNL1        0.0246
     28 C          60.5432   84.7973    6.0550 C.3     1  UNL1        0.0338
     29 C          61.7312   84.0225    5.5667 C.3     1  UNL1        0.1422
     30 O          63.0530   84.1587    6.2626 O.3     1  UNL1       -0.3538
     31 C          63.1869   85.0697    7.4468 C.3     1  UNL1        0.1422
     32 C          61.9989   85.8445    7.9350 C.3     1  UNL1        0.0338
     33 N          63.1072   84.6590   12.0635 N.pl3   1  UNL1       -0.3174
     34 H          63.4458   83.9870   11.4287 H       1  UNL1        0.1482
     35 C          63.3573   84.4952   13.5334 C.3     1  UNL1        0.0948
     36 C          62.7825   83.3189   14.2654 C.3     1  UNL1        0.1047
     37 C          63.4566   82.3891   13.3005 C.3     1  UNL1        0.0310
     38 C          62.1084   84.2487   15.2303 C.3     1  UNL1        0.0310
     39 O          62.2078   82.1425   14.9975 O.3     1  UNL1       -0.3851
     40 H          62.4949   81.3221   14.5669 H       1  UNL1        0.2103
     41 C          64.1820   85.5078   14.2713 C.3     1  UNL1        0.0203
     42 C          64.3374   86.8815   14.8533 C.3     1  UNL1        0.0018
     43 C          65.4552   85.8878   14.9673 C.3     1  UNL1        0.0018
@<TRIPOS>BOND
     1    10    11    1
     2    11    12   ar
     3    12    13   ar
     4    13     1    1
     5     1     2   ar
     6     2     3   ar
     7     3     4   ar
     8     4     5   ar
     9     5    24    1
    10    24    26    1
    11    26    27    1
    12    27    28    1
    13    28    29    1
    14    29    30    1
    15    30    31    1
    16    31    32    1
    17     5     6   ar
    18     6     7   ar
    19     7    33    1
    20    35    33    1
    21    35    41    1
    22    41    42    1
    23    42    43    1
    24    35    36    1
    25    36    37    1
    26    36    38    1
    27    36    39    1
    28     7     8   ar
    29     8     9   ar
    30    13    14   ar
    31    14    15   ar
    32    15    16   ar
    33    16    17    1
    34    17    18    2
    35    17    19   am
    36    19    21    1
    37    21    22    1
    38    22    23    1
    39    16    11   ar
    40    23    21    1
    41     9     1   ar
    42     9     4   ar
    43    32    27    1
    44    43    41    1
    45    24    25    1
    46    33    34    1
    47    39    40    1
    48    19    20    1
@<TRIPOS>MOLECULE
*****
 43 48 0 0 0
SMALL
GASTEIGER

@<TRIPOS>ATOM
      1 C          63.9187   86.3204   13.7829 C.ar    1  UNL1        0.0568
      2 C          64.6069   86.7980   15.0272 C.ar    1  UNL1        0.1236
      3 N          64.6551   88.2966   14.9841 N.ar    1  UNL1       -0.1610
      4 N          63.9967   88.7452   13.7132 N.ar    1  UNL1       -0.1987
      5 C          63.7529   90.1080   13.1360 C.ar    1  UNL1        0.1344
      6 C          63.0538   90.2496   11.8163 C.ar    1  UNL1        0.0682
      7 C          62.5986   89.0282   11.0740 C.ar    1  UNL1        0.1330
      8 N          62.8425   87.6653   11.6512 N.ar    1  UNL1       -0.2119
      9 C          63.5416   87.5239   12.9708 C.ar    1  UNL1        0.1679
     10 C          64.0384   82.4762   10.2889 C.3     1  UNL1        0.0312
     11 C          63.7139   82.9683   11.6682 C.ar    1  UNL1       -0.0175
     12 C          63.9785   84.3983   12.0360 C.ar    1  UNL1       -0.0040
     13 C          63.6540   84.8905   13.4152 C.ar    1  UNL1        0.0042
     14 C          63.0648   83.9527   14.4268 C.ar    1  UNL1        0.0003
     15 C          62.8001   82.5227   14.0591 C.ar    1  UNL1        0.0042
     16 C          63.1246   82.0305   12.6798 C.ar    1  UNL1        0.0494
     17 C          62.8600   80.6006   12.3121 C.2     1  UNL1        0.2455
     18 O          62.2378   79.6719   13.3123 O.2     1  UNL1       -0.2702
     19 N          63.2174   80.0993   10.9443 N.am    1  UNL1       -0.3025
     20 H          63.6258   80.7089   10.2878 H       1  UNL1        0.1497
     21 C          62.9528   78.6694   10.5766 C.3     1  UNL1        0.0720
     22 C          63.3699   77.4090    9.8786 C.3     1  UNL1        0.0213
     23 C          62.0771   77.4531   10.6378 C.3     1  UNL1        0.0213
     24 N          64.2080   91.3294   13.8784 N.pl3   1  UNL1       -0.3180
     25 H          63.5911   91.7917   14.4906 H       1  UNL1        0.1482
     26 C          65.6033   91.8462   13.6880 C.3     1  UNL1        0.0883
     27 C          65.9009   92.8108   12.5784 C.3     1  UNL1        0.0246
     28 C          65.9207   92.3349   11.1561 C.3     1  UNL1        0.0338
     29 C          66.2182   93.2995   10.0466 C.3     1  UNL1        0.1422
     30 O          66.4960   94.7400   10.3594 O.3     1  UNL1       -0.3538
     31 C          66.4762   95.2159   11.7818 C.3     1  UNL1        0.1422
     32 C          66.1786   94.2513   12.8913 C.3     1  UNL1        0.0338
     33 N          61.8996   89.1697    9.7544 N.pl3   1  UNL1       -0.3174
     34 H          62.4237   89.2991    8.9311 H       1  UNL1        0.1482
     35 C          60.4021   89.1140    9.6892 C.3     1  UNL1        0.0948
     36 C          59.7253   88.5113    8.4940 C.3     1  UNL1        0.1047
     37 C          59.6407   87.1939    9.2062 C.3     1  UNL1        0.0310
     38 C          59.8099   89.8287    7.7817 C.3     1  UNL1        0.0310
     39 O          59.0485   87.9085    7.2987 O.3     1  UNL1       -0.3851
     40 H          58.8510   86.9754    7.4753 H       1  UNL1        0.2103
     41 C          59.5813   89.6611   10.8192 C.3     1  UNL1        0.0203
     42 C          58.9277   90.8234   11.5061 C.3     1  UNL1        0.0018
     43 C          58.8132   89.4464   12.0896 C.3     1  UNL1        0.0018
@<TRIPOS>BOND
     1    10    11    1
     2    11    12   ar
     3    12    13   ar
     4    13     1    1
     5     1     2   ar
     6     2     3   ar
     7     3     4   ar
     8     4     5   ar
     9     5    24    1
    10    24    26    1
    11    26    27    1
    12    27    28    1
    13    28    29    1
    14    29    30    1
    15    30    31    1
    16    31    32    1
    17     5     6   ar
    18     6     7   ar
    19     7    33    1
    20    35    33    1
    21    35    41    1
    22    41    42    1
    23    42    43    1
    24    35    36    1
    25    36    37    1
    26    36    38    1
    27    36    39    1
    28     7     8   ar
    29     8     9   ar
    30    13    14   ar
    31    14    15   ar
    32    15    16   ar
    33    16    17    1
    34    17    18    2
    35    17    19   am
    36    19    21    1
    37    21    22    1
    38    22    23    1
    39    16    11   ar
    40    23    21    1
    41     9     1   ar
    42     9     4   ar
    43    32    27    1
    44    43    41    1
    45    24    25    1
    46    33    34    1
    47    39    40    1
    48    19    20    1
@<TRIPOS>MOLECULE
*****
 43 48 0 0 0
SMALL
GASTEIGER

@<TRIPOS>ATOM
      1 C          62.2217   87.1388   11.2659 C.ar    1  UNL1        0.0568
      2 C          62.3652   85.6621   11.4864 C.ar    1  UNL1        0.1236
      3 N          63.2209   85.4557   12.7009 N.ar    1  UNL1       -0.1610
      4 N          63.6063   86.8049   13.2311 N.ar    1  UNL1       -0.1987
      5 C          64.4397   87.2207   14.4069 C.ar    1  UNL1        0.1344
      6 C          64.6556   88.6767   14.6959 C.ar    1  UNL1        0.0682
      7 C          64.0381   89.7169   13.8090 C.ar    1  UNL1        0.1330
      8 N          63.2046   89.3011   12.6332 N.ar    1  UNL1       -0.2119
      9 C          62.9887   87.8452   12.3443 C.ar    1  UNL1        0.1679
     10 C          59.1283   86.7716    7.1071 C.3     1  UNL1        0.0312
     11 C          59.9004   87.6106    8.0817 C.ar    1  UNL1       -0.0175
     12 C          60.6750   86.9553    9.1865 C.ar    1  UNL1       -0.0040
     13 C          61.4472   87.7942   10.1612 C.ar    1  UNL1        0.0042
     14 C          61.4448   89.2885   10.0310 C.ar    1  UNL1        0.0003
     15 C          60.6702   89.9439    8.9262 C.ar    1  UNL1        0.0042
     16 C          59.8980   89.1050    7.9515 C.ar    1  UNL1        0.0494
     17 C          59.1235   89.7604    6.8468 C.2     1  UNL1        0.2455
     18 O          57.6877   89.3922    6.6168 O.2     1  UNL1       -0.2702
     19 N          59.7848   90.7838    5.9720 N.am    1  UNL1       -0.3025
     20 H          60.7272   91.0254    6.1230 H       1  UNL1        0.1497
     21 C          59.0102   91.4392    4.8672 C.3     1  UNL1        0.0720
     22 C          58.9799   92.2514    3.6065 C.3     1  UNL1        0.0213
     23 C          57.6989   91.7623    4.2144 C.3     1  UNL1        0.0213
     24 N          65.0573   86.1804   15.2938 N.pl3   1  UNL1       -0.3180
     25 H          66.0298   86.1783   15.4467 H       1  UNL1        0.1482
     26 C          64.1930   85.1434   15.9478 C.3     1  UNL1        0.0883
     27 C          63.7392   83.9450   15.1680 C.3     1  UNL1        0.0246
     28 C          64.6586   83.3086   14.1682 C.3     1  UNL1        0.0338
     29 C          64.2048   82.1103   13.3885 C.3     1  UNL1        0.1422
     30 O          62.8316   81.5483   13.6085 O.3     1  UNL1       -0.3538
     31 C          61.9121   82.1848   14.6083 C.3     1  UNL1        0.1422
     32 C          62.3659   83.3831   15.3880 C.3     1  UNL1        0.0338
     33 N          64.2540   91.1729   14.0979 N.pl3   1  UNL1       -0.3174
     34 H          63.6099   91.6646   14.6571 H       1  UNL1        0.1482
     35 C          65.4512   91.8798   13.5349 C.3     1  UNL1        0.0948
     36 C          65.3089   92.7404   12.3146 C.3     1  UNL1        0.1047
     37 C          64.4386   91.6965   11.6799 C.3     1  UNL1        0.0310
     38 C          66.1792   93.7842   12.9494 C.3     1  UNL1        0.0310
     39 O          65.1666   93.6010   11.0943 O.3     1  UNL1       -0.3851
     40 H          64.6053   93.1501   10.4443 H       1  UNL1        0.2103
     41 C          66.7907   91.7260   14.1921 C.3     1  UNL1        0.0203
     42 C          68.2846   91.6358   14.0910 C.3     1  UNL1        0.0018
     43 C          67.6170   91.5500   15.4315 C.3     1  UNL1        0.0018
@<TRIPOS>BOND
     1    10    11    1
     2    11    12   ar
     3    12    13   ar
     4    13     1    1
     5     1     2   ar
     6     2     3   ar
     7     3     4   ar
     8     4     5   ar
     9     5    24    1
    10    24    26    1
    11    26    27    1
    12    27    28    1
    13    28    29    1
    14    29    30    1
    15    30    31    1
    16    31    32    1
    17     5     6   ar
    18     6     7   ar
    19     7    33    1
    20    35    33    1
    21    35    41    1
    22    41    42    1
    23    42    43    1
    24    35    36    1
    25    36    37    1
    26    36    38    1
    27    36    39    1
    28     7     8   ar
    29     8     9   ar
    30    13    14   ar
    31    14    15   ar
    32    15    16   ar
    33    16    17    1
    34    17    18    2
    35    17    19   am
    36    19    21    1
    37    21    22    1
    38    22    23    1
    39    16    11   ar
    40    23    21    1
    41     9     1   ar
    42     9     4   ar
    43    32    27    1
    44    43    41    1
    45    24    25    1
    46    33    34    1
    47    39    40    1
    48    19    20    1
