@<TRIPOS>MOLECULE
*****
 31 34 0 0 0
SMALL
GASTEIGER

@<TRIPOS>ATOM
      1 C          64.5938   91.7989   12.1266 C.ar    1  UNL1        0.0180
      2 C          63.8946   92.2222   10.8689 C.ar    1  UNL1        0.0029
      3 C          62.9657   91.2732   10.1714 C.ar    1  UNL1        0.0189
      4 C          62.7361   89.9008   10.7316 C.ar    1  UNL1        0.0789
      5 C          63.4353   89.4775   11.9893 C.ar    1  UNL1        0.0670
      6 C          64.3641   90.4265   12.6868 C.ar    1  UNL1        0.0174
      7 N          61.8072   88.9518   10.0341 N.ar    1  UNL1       -0.2852
      8 C          62.1500   87.5702    9.5612 C.ar    1  UNL1        0.1023
      9 C          60.9271   86.9823    8.9218 C.ar    1  UNL1        0.1196
     10 N          59.8284   88.0005    8.9996 N.ar    1  UNL1       -0.2220
     11 C          60.3723   89.2177    9.6870 C.ar    1  UNL1        0.1829
     12 N          63.2056   88.1051   12.5496 N.am    1  UNL1       -0.2788
     13 C          63.8942   87.6866   13.8147 C.2     1  UNL1        0.2571
     14 O          64.8125   88.6404   14.5196 O.2     1  UNL1       -0.2692
     15 H          62.6029   87.4791   12.0869 H       1  UNL1        0.1552
     16 C          63.6646   86.3142   14.3749 C.ar    1  UNL1        0.1036
     17 C          63.8229   85.9103   15.8108 C.ar    1  UNL1        0.1105
     18 N          63.4924   84.4512   15.9210 N.ar    1  UNL1       -0.2351
     19 C          63.1299   83.9535   14.5532 C.ar    1  UNL1        0.1285
     20 S          63.2363   85.1049   13.5977 S.2     1  UNL1       -0.0604
     21 C          62.7310   82.5507   14.2025 C.ar    1  UNL1        0.1050
     22 C          63.6977   81.6520   13.4898 C.ar    1  UNL1        0.0212
     23 C          63.2988   80.2492   13.1391 C.ar    1  UNL1        0.0032
     24 C          61.9333   79.7451   13.5010 C.ar    1  UNL1        0.0207
     25 C          60.9665   80.6438   14.2137 C.ar    1  UNL1        0.0989
     26 N          61.3655   82.0466   14.5644 N.ar    1  UNL1       -0.2418
     27 N          65.7718   92.6073   14.2966 N.2     1  UNL1       -0.0873
     28 C          65.5227   92.7479   12.8242 C.2     1  UNL1        0.0974
     29 C          66.2025   93.8375   12.0492 C.3     1  UNL1        0.0555
     30 C          67.7813   93.0262   15.8892 C.3     1  UNL1        0.2885
     31 O          66.7007   93.5564   14.9941 O.2     1  UNL1       -0.3734
@<TRIPOS>BOND
     1    30    31    1
     2    31    27    1
     3    27    28    2
     4    28    29    1
     5    28     1    1
     6     1     2   ar
     7     2     3   ar
     8     3     4   ar
     9     4     7    1
    10     7     8   ar
    11     8     9   ar
    12     9    10   ar
    13    10    11   ar
    14     4     5   ar
    15     5    12    1
    16    12    13   am
    17    13    14    2
    18    13    16    1
    19    16    17   ar
    20    17    18   ar
    21    18    19   ar
    22    19    21    1
    23    21    22   ar
    24    22    23   ar
    25    23    24   ar
    26    24    25   ar
    27    25    26   ar
    28    19    20   ar
    29     5     6   ar
    30     6     1   ar
    31    11     7   ar
    32    20    16   ar
    33    26    21   ar
    34    12    15    1
@<TRIPOS>MOLECULE
*****
 31 34 0 0 0
SMALL
GASTEIGER

@<TRIPOS>ATOM
      1 C          63.6716   90.5254   12.5449 C.ar    1  UNL1        0.0180
      2 C          63.0469   91.2318   11.3785 C.ar    1  UNL1        0.0029
      3 C          62.2674   90.4537   10.3602 C.ar    1  UNL1        0.0189
      4 C          62.1126   88.9691   10.5084 C.ar    1  UNL1        0.0789
      5 C          62.7373   88.2627   11.6748 C.ar    1  UNL1        0.0670
      6 C          63.5168   89.0408   12.6931 C.ar    1  UNL1        0.0174
      7 N          61.3330   88.1910    9.4901 N.ar    1  UNL1       -0.2852
      8 C          61.6284   86.7930    9.0335 C.ar    1  UNL1        0.1023
      9 C          60.5992   86.4122    8.0109 C.ar    1  UNL1        0.1196
     10 N          59.6678   87.5749    7.8355 N.ar    1  UNL1       -0.2220
     11 C          60.1213   88.6742    8.7497 C.ar    1  UNL1        0.1829
     12 N          62.5825   86.7780   11.8231 N.am    1  UNL1       -0.2788
     13 C          63.1978   86.0731   12.9954 C.2     1  UNL1        0.2571
     14 O          63.9680   86.8528   14.0196 O.2     1  UNL1       -0.2692
     15 H          62.0770   86.2662   11.1509 H       1  UNL1        0.1552
     16 C          63.0430   84.5885   13.1436 C.ar    1  UNL1        0.1036
     17 C          62.8505   83.8465   14.4330 C.ar    1  UNL1        0.1105
     18 N          62.7421   82.3846   14.1148 N.ar    1  UNL1       -0.2351
     19 C          62.8676   82.2232   12.6287 C.ar    1  UNL1        0.1285
     20 S          63.0536   83.5852   12.0286 S.2     1  UNL1       -0.0604
     21 C          62.8161   80.9273   11.8753 C.ar    1  UNL1        0.1050
     22 C          63.0505   80.9112   10.3937 C.ar    1  UNL1        0.0212
     23 C          62.9990   79.6152    9.6403 C.ar    1  UNL1        0.0032
     24 C          62.7132   78.3353   10.3682 C.ar    1  UNL1        0.0207
     25 C          62.4788   78.3512   11.8498 C.ar    1  UNL1        0.0989
     26 N          62.5303   79.6473   12.6032 N.ar    1  UNL1       -0.2418
     27 N          65.2243   92.5195   13.1469 N.2     1  UNL1       -0.0873
     28 C          64.4511   91.3035   13.5632 C.2     1  UNL1        0.0974
     29 C          64.4574   90.8656   14.9978 C.3     1  UNL1        0.0555
     30 C          67.4385   92.9529   14.4351 C.3     1  UNL1        0.2885
     31 O          66.0038   93.2977   14.1651 O.2     1  UNL1       -0.3734
@<TRIPOS>BOND
     1    30    31    1
     2    31    27    1
     3    27    28    2
     4    28    29    1
     5    28     1    1
     6     1     2   ar
     7     2     3   ar
     8     3     4   ar
     9     4     7    1
    10     7     8   ar
    11     8     9   ar
    12     9    10   ar
    13    10    11   ar
    14     4     5   ar
    15     5    12    1
    16    12    13   am
    17    13    14    2
    18    13    16    1
    19    16    17   ar
    20    17    18   ar
    21    18    19   ar
    22    19    21    1
    23    21    22   ar
    24    22    23   ar
    25    23    24   ar
    26    24    25   ar
    27    25    26   ar
    28    19    20   ar
    29     5     6   ar
    30     6     1   ar
    31    11     7   ar
    32    20    16   ar
    33    26    21   ar
    34    12    15    1
@<TRIPOS>MOLECULE
*****
 31 34 0 0 0
SMALL
GASTEIGER

@<TRIPOS>ATOM
      1 C          63.4216   85.1294   13.7767 C.ar    1  UNL1        0.0180
      2 C          64.0764   86.2356   14.5498 C.ar    1  UNL1        0.0029
      3 C          64.0756   87.6334   14.0057 C.ar    1  UNL1        0.0189
      4 C          63.4200   87.9251   12.6885 C.ar    1  UNL1        0.0789
      5 C          62.7652   86.8190   11.9154 C.ar    1  UNL1        0.0670
      6 C          62.7660   85.4211   12.4595 C.ar    1  UNL1        0.0174
      7 N          63.4192   89.3229   12.1444 N.ar    1  UNL1       -0.2852
      8 C          63.0215   89.7284   10.7561 C.ar    1  UNL1        0.1023
      9 C          63.1725   91.2168   10.6467 C.ar    1  UNL1        0.1196
     10 N          63.6634   91.7312   11.9674 N.ar    1  UNL1       -0.2220
     11 C          63.8159   90.5607   12.8930 C.ar    1  UNL1        0.1829
     12 N          62.1095   87.1106   10.5981 N.am    1  UNL1       -0.2788
     13 C          60.6906   87.5954   10.5576 C.2     1  UNL1        0.2571
     14 O          59.9273   87.7885   11.8344 O.2     1  UNL1       -0.2692
     15 H          62.6105   86.9839    9.7602 H       1  UNL1        0.1552
     16 C          60.0350   87.8871    9.2404 C.ar    1  UNL1        0.1036
     17 C          59.1987   86.9321    8.4413 C.ar    1  UNL1        0.1105
     18 N          58.7474   87.6397    7.1979 N.ar    1  UNL1       -0.2351
     19 C          59.3048   89.0320    7.2288 C.ar    1  UNL1        0.1285
     20 S          60.1006   89.1848    8.4910 S.2     1  UNL1       -0.0604
     21 C          59.1021   90.0862    6.1813 C.ar    1  UNL1        0.1050
     22 C          60.2821   90.6522    5.4484 C.ar    1  UNL1        0.0212
     23 C          60.0794   91.7064    4.4009 C.ar    1  UNL1        0.0032
     24 C          58.6965   92.1948    4.0862 C.ar    1  UNL1        0.0207
     25 C          57.5163   91.6289    4.8190 C.ar    1  UNL1        0.0989
     26 N          57.7192   90.5746    5.8666 N.ar    1  UNL1       -0.2418
     27 N          62.3046   82.7923   13.9770 N.2     1  UNL1       -0.0873
     28 C          63.4224   83.7316   14.3209 C.2     1  UNL1        0.0974
     29 C          64.5409   83.2731   15.2089 C.3     1  UNL1        0.0555
     30 C          62.4508   80.2273   13.5901 C.3     1  UNL1        0.2885
     31 O          62.3055   81.3944   14.5211 O.2     1  UNL1       -0.3734
@<TRIPOS>BOND
     1    30    31    1
     2    31    27    1
     3    27    28    2
     4    28    29    1
     5    28     1    1
     6     1     2   ar
     7     2     3   ar
     8     3     4   ar
     9     4     7    1
    10     7     8   ar
    11     8     9   ar
    12     9    10   ar
    13    10    11   ar
    14     4     5   ar
    15     5    12    1
    16    12    13   am
    17    13    14    2
    18    13    16    1
    19    16    17   ar
    20    17    18   ar
    21    18    19   ar
    22    19    21    1
    23    21    22   ar
    24    22    23   ar
    25    23    24   ar
    26    24    25   ar
    27    25    26   ar
    28    19    20   ar
    29     5     6   ar
    30     6     1   ar
    31    11     7   ar
    32    20    16   ar
    33    26    21   ar
    34    12    15    1
@<TRIPOS>MOLECULE
*****
 31 34 0 0 0
SMALL
GASTEIGER

@<TRIPOS>ATOM
      1 C          64.0975   89.2155   14.4162 C.ar    1  UNL1        0.0180
      2 C          64.4128   87.8853   15.0336 C.ar    1  UNL1        0.0029
      3 C          64.0778   86.6201   14.3009 C.ar    1  UNL1        0.0189
      4 C          63.4274   86.6850   12.9508 C.ar    1  UNL1        0.0789
      5 C          63.1121   88.0151   12.3334 C.ar    1  UNL1        0.0670
      6 C          63.4471   89.2804   13.0662 C.ar    1  UNL1        0.0174
      7 N          63.0924   85.4197   12.2181 N.ar    1  UNL1       -0.2852
      8 C          63.0775   84.0390   12.8041 C.ar    1  UNL1        0.1023
      9 C          62.6894   83.0789   11.7189 C.ar    1  UNL1        0.1196
     10 N          62.4644   83.8663   10.4622 N.ar    1  UNL1       -0.2220
     11 C          62.7135   85.3130   10.7707 C.ar    1  UNL1        0.1829
     12 N          62.4617   88.0801   10.9833 N.am    1  UNL1       -0.2788
     13 C          60.9877   88.3346   10.8723 C.2     1  UNL1        0.2571
     14 O          60.1639   88.5242   12.1115 O.2     1  UNL1       -0.2692
     15 H          63.0023   87.9556   10.1700 H       1  UNL1        0.1552
     16 C          60.3373   88.3996    9.5222 C.ar    1  UNL1        0.1036
     17 C          59.7145   87.2497    8.7874 C.ar    1  UNL1        0.1105
     18 N          59.1878   87.7652    7.4808 N.ar    1  UNL1       -0.2351
     19 C          59.4851   89.2337    7.4083 C.ar    1  UNL1        0.1285
     20 S          60.1955   89.6257    8.6699 S.2     1  UNL1       -0.0604
     21 C          59.1337   90.1493    6.2734 C.ar    1  UNL1        0.1050
     22 C          60.2205   90.7750    5.4503 C.ar    1  UNL1        0.0212
     23 C          59.8691   91.6907    4.3155 C.ar    1  UNL1        0.0032
     24 C          58.4308   91.9807    4.0035 C.ar    1  UNL1        0.0207
     25 C          57.3439   91.3550    4.8265 C.ar    1  UNL1        0.0989
     26 N          57.6955   90.4393    5.9614 N.ar    1  UNL1       -0.2418
     27 N          65.4728   91.4119   14.6007 N.2     1  UNL1       -0.0873
     28 C          64.4325   90.4808   15.1490 C.2     1  UNL1        0.0974
     29 C          63.7271   90.8149   16.4299 C.3     1  UNL1        0.0555
     30 C          67.1114   92.7970   16.0659 C.3     1  UNL1        0.2885
     31 O          65.8078   92.6772   15.3335 O.2     1  UNL1       -0.3734
@<TRIPOS>BOND
     1    30    31    1
     2    31    27    1
     3    27    28    2
     4    28    29    1
     5    28     1    1
     6     1     2   ar
     7     2     3   ar
     8     3     4   ar
     9     4     7    1
    10     7     8   ar
    11     8     9   ar
    12     9    10   ar
    13    10    11   ar
    14     4     5   ar
    15     5    12    1
    16    12    13   am
    17    13    14    2
    18    13    16    1
    19    16    17   ar
    20    17    18   ar
    21    18    19   ar
    22    19    21    1
    23    21    22   ar
    24    22    23   ar
    25    23    24   ar
    26    24    25   ar
    27    25    26   ar
    28    19    20   ar
    29     5     6   ar
    30     6     1   ar
    31    11     7   ar
    32    20    16   ar
    33    26    21   ar
    34    12    15    1
@<TRIPOS>MOLECULE
*****
 31 34 0 0 0
SMALL
GASTEIGER

@<TRIPOS>ATOM
      1 C          65.9695   93.3698   12.4627 C.ar    1  UNL1        0.0180
      2 C          66.1117   93.4125   13.9553 C.ar    1  UNL1        0.0029
      3 C          65.5348   92.3118   14.7954 C.ar    1  UNL1        0.0189
      4 C          64.8157   91.1686   14.1429 C.ar    1  UNL1        0.0789
      5 C          64.6735   91.1259   12.6503 C.ar    1  UNL1        0.0670
      6 C          65.2504   92.2266   11.8102 C.ar    1  UNL1        0.0174
      7 N          64.2388   90.0679   14.9831 N.ar    1  UNL1       -0.2852
      8 C          63.4705   90.2432   16.2594 C.ar    1  UNL1        0.1023
      9 C          63.0858   88.8824   16.7595 C.ar    1  UNL1        0.1196
     10 N          63.6163   87.8660   15.7923 N.ar    1  UNL1       -0.2220
     11 C          64.3289   88.5987   14.6944 C.ar    1  UNL1        0.1829
     12 N          63.9543   89.9826   11.9978 N.am    1  UNL1       -0.2788
     13 C          62.5378   90.1537   11.5350 C.2     1  UNL1        0.2571
     14 O          61.8404   91.4681   11.7248 O.2     1  UNL1       -0.2692
     15 H          64.4121   89.1200   11.8732 H       1  UNL1        0.1552
     16 C          61.8187   89.0104   10.8825 C.ar    1  UNL1        0.1036
     17 C          60.4726   88.4768   11.2743 C.ar    1  UNL1        0.1105
     18 N          60.1413   87.3366   10.3575 N.ar    1  UNL1       -0.2351
     19 C          61.2827   87.1657    9.3992 C.ar    1  UNL1        0.1285
     20 S          62.3193   88.2001    9.7237 S.2     1  UNL1       -0.0604
     21 C          61.3717   86.1403    8.3081 C.ar    1  UNL1        0.1050
     22 C          62.6851   85.4843    8.0007 C.ar    1  UNL1        0.0212
     23 C          62.7742   84.4589    6.9096 C.ar    1  UNL1        0.0032
     24 C          61.5498   84.0895    6.1258 C.ar    1  UNL1        0.0207
     25 C          60.2362   84.7455    6.4332 C.ar    1  UNL1        0.0989
     26 N          60.1473   85.7709    7.5244 N.ar    1  UNL1       -0.2418
     27 N          67.5033   94.1451   10.5143 N.2     1  UNL1       -0.0873
     28 C          66.5464   94.4705   11.6226 C.2     1  UNL1        0.0974
     29 C          66.1664   95.8965   11.8908 C.3     1  UNL1        0.0555
     30 C          67.3762   95.6822    8.4235 C.3     1  UNL1        0.2885
     31 O          68.0802   95.2457    9.6741 O.2     1  UNL1       -0.3734
@<TRIPOS>BOND
     1    30    31    1
     2    31    27    1
     3    27    28    2
     4    28    29    1
     5    28     1    1
     6     1     2   ar
     7     2     3   ar
     8     3     4   ar
     9     4     7    1
    10     7     8   ar
    11     8     9   ar
    12     9    10   ar
    13    10    11   ar
    14     4     5   ar
    15     5    12    1
    16    12    13   am
    17    13    14    2
    18    13    16    1
    19    16    17   ar
    20    17    18   ar
    21    18    19   ar
    22    19    21    1
    23    21    22   ar
    24    22    23   ar
    25    23    24   ar
    26    24    25   ar
    27    25    26   ar
    28    19    20   ar
    29     5     6   ar
    30     6     1   ar
    31    11     7   ar
    32    20    16   ar
    33    26    21   ar
    34    12    15    1
@<TRIPOS>MOLECULE
*****
 31 34 0 0 0
SMALL
GASTEIGER

@<TRIPOS>ATOM
      1 C          60.8630   87.2177    9.6043 C.ar    1  UNL1        0.0180
      2 C          60.8896   85.7241    9.7389 C.ar    1  UNL1        0.0029
      3 C          61.7565   85.0801   10.7800 C.ar    1  UNL1        0.0189
      4 C          62.5968   85.9298   11.6864 C.ar    1  UNL1        0.0789
      5 C          62.5703   87.4235   11.5518 C.ar    1  UNL1        0.0670
      6 C          61.7034   88.0675   10.5107 C.ar    1  UNL1        0.0174
      7 N          63.4637   85.2859   12.7275 N.ar    1  UNL1       -0.2852
      8 C          63.9013   85.9099   14.0195 C.ar    1  UNL1        0.1023
      9 C          64.7532   84.9145   14.7499 C.ar    1  UNL1        0.1196
     10 N          64.8422   83.6753   13.9093 N.ar    1  UNL1       -0.2220
     11 C          64.0452   83.9049   12.6595 C.ar    1  UNL1        0.1829
     12 N          63.4107   88.2733   12.4583 N.am    1  UNL1       -0.2788
     13 C          62.7879   89.4139   13.2074 C.2     1  UNL1        0.2571
     14 O          61.3248   89.7047   13.0501 O.2     1  UNL1       -0.2692
     15 H          64.3710   88.0825   12.5616 H       1  UNL1        0.1552
     16 C          63.6283   90.2637   14.1139 C.ar    1  UNL1        0.1036
     17 C          63.2161   90.7989   15.4532 C.ar    1  UNL1        0.1105
     18 N          64.3614   91.5935   16.0073 N.ar    1  UNL1       -0.2351
     19 C          65.4814   91.5493   15.0104 C.ar    1  UNL1        0.1285
     20 S          65.0283   90.7275   13.8403 S.2     1  UNL1       -0.0604
     21 C          66.8195   92.2108   15.1578 C.ar    1  UNL1        0.1050
     22 C          67.9360   91.8625   14.2185 C.ar    1  UNL1        0.0212
     23 C          69.2741   92.5240   14.3659 C.ar    1  UNL1        0.0032
     24 C          69.4959   93.5339   15.4527 C.ar    1  UNL1        0.0207
     25 C          68.3794   93.8822   16.3920 C.ar    1  UNL1        0.0989
     26 N          67.0413   93.2207   16.2445 N.ar    1  UNL1       -0.2418
     27 N          60.1302   89.3282    8.2781 N.2     1  UNL1       -0.0873
     28 C          59.9962   87.8617    8.5632 C.2     1  UNL1        0.0974
     29 C          58.9953   87.0391    7.8072 C.3     1  UNL1        0.0555
     30 C          59.7691   90.1316    5.8339 C.3     1  UNL1        0.2885
     31 O          59.2633   89.9721    7.2370 O.2     1  UNL1       -0.3734
@<TRIPOS>BOND
     1    30    31    1
     2    31    27    1
     3    27    28    2
     4    28    29    1
     5    28     1    1
     6     1     2   ar
     7     2     3   ar
     8     3     4   ar
     9     4     7    1
    10     7     8   ar
    11     8     9   ar
    12     9    10   ar
    13    10    11   ar
    14     4     5   ar
    15     5    12    1
    16    12    13   am
    17    13    14    2
    18    13    16    1
    19    16    17   ar
    20    17    18   ar
    21    18    19   ar
    22    19    21    1
    23    21    22   ar
    24    22    23   ar
    25    23    24   ar
    26    24    25   ar
    27    25    26   ar
    28    19    20   ar
    29     5     6   ar
    30     6     1   ar
    31    11     7   ar
    32    20    16   ar
    33    26    21   ar
    34    12    15    1
@<TRIPOS>MOLECULE
*****
 31 34 0 0 0
SMALL
GASTEIGER

@<TRIPOS>ATOM
      1 C          59.7932   88.8415    7.4350 C.ar    1  UNL1        0.0180
      2 C          59.6020   87.3663    7.2428 C.ar    1  UNL1        0.0029
      3 C          60.2971   86.3954    8.1507 C.ar    1  UNL1        0.0189
      4 C          61.1832   86.8998    9.2508 C.ar    1  UNL1        0.0789
      5 C          61.3744   88.3750    9.4429 C.ar    1  UNL1        0.0670
      6 C          60.6794   89.3459    8.5350 C.ar    1  UNL1        0.0174
      7 N          61.8783   85.9289   10.1587 N.ar    1  UNL1       -0.2852
      8 C          61.6722   85.8036   11.6392 C.ar    1  UNL1        0.1023
      9 C          62.5680   84.7101   12.1411 C.ar    1  UNL1        0.1196
     10 N          63.3277   84.1596   10.9707 N.ar    1  UNL1       -0.2220
     11 C          62.9015   84.9128    9.7456 C.ar    1  UNL1        0.1829
     12 N          62.2606   88.8795   10.5431 N.am    1  UNL1       -0.2788
     13 C          61.6601   89.3419   11.8375 C.2     1  UNL1        0.2571
     14 O          60.1733   89.2999   12.0318 O.2     1  UNL1       -0.2692
     15 H          63.2364   88.9071   10.4155 H       1  UNL1        0.1552
     16 C          62.5463   89.8464   12.9376 C.ar    1  UNL1        0.1036
     17 C          62.2738   89.7385   14.4087 C.ar    1  UNL1        0.1105
     18 N          63.4197   90.3727   15.1401 N.ar    1  UNL1       -0.2351
     19 C          64.4003   90.8726   14.1209 C.ar    1  UNL1        0.1285
     20 S          63.8605   90.5473   12.7597 S.2     1  UNL1       -0.0604
     21 C          65.6935   91.5745   14.4118 C.ar    1  UNL1        0.1050
     22 C          65.8893   92.2723   15.7252 C.ar    1  UNL1        0.0212
     23 C          67.1825   92.9742   16.0161 C.ar    1  UNL1        0.0032
     24 C          68.2802   92.9783   14.9938 C.ar    1  UNL1        0.0207
     25 C          68.0845   92.2806   13.6804 C.ar    1  UNL1        0.0989
     26 N          66.7911   91.5787   13.3895 N.ar    1  UNL1       -0.2418
     27 N          59.8950   90.8310    5.7672 N.2     1  UNL1       -0.0873
     28 C          59.0981   89.8124    6.5270 C.2     1  UNL1        0.0974
     29 C          57.6063   89.7647    6.3790 C.3     1  UNL1        0.0555
     30 C          59.9401   92.4121    3.7060 C.3     1  UNL1        0.2885
     31 O          59.1999   91.8019    4.8593 O.2     1  UNL1       -0.3734
@<TRIPOS>BOND
     1    30    31    1
     2    31    27    1
     3    27    28    2
     4    28    29    1
     5    28     1    1
     6     1     2   ar
     7     2     3   ar
     8     3     4   ar
     9     4     7    1
    10     7     8   ar
    11     8     9   ar
    12     9    10   ar
    13    10    11   ar
    14     4     5   ar
    15     5    12    1
    16    12    13   am
    17    13    14    2
    18    13    16    1
    19    16    17   ar
    20    17    18   ar
    21    18    19   ar
    22    19    21    1
    23    21    22   ar
    24    22    23   ar
    25    23    24   ar
    26    24    25   ar
    27    25    26   ar
    28    19    20   ar
    29     5     6   ar
    30     6     1   ar
    31    11     7   ar
    32    20    16   ar
    33    26    21   ar
    34    12    15    1
@<TRIPOS>MOLECULE
*****
 31 34 0 0 0
SMALL
GASTEIGER

@<TRIPOS>ATOM
      1 C          63.0670   85.2154   12.8333 C.ar    1  UNL1        0.0180
      2 C          61.7571   85.0214   12.1288 C.ar    1  UNL1        0.0029
      3 C          61.1120   86.1719   11.4144 C.ar    1  UNL1        0.0189
      4 C          61.7769   87.5164   11.4046 C.ar    1  UNL1        0.0789
      5 C          63.0868   87.7104   12.1091 C.ar    1  UNL1        0.0670
      6 C          63.7318   86.5599   12.8235 C.ar    1  UNL1        0.0174
      7 N          61.1319   88.6669   10.6902 N.ar    1  UNL1       -0.2852
      8 C          60.9274   88.7818    9.2087 C.ar    1  UNL1        0.1023
      9 C          60.2472   90.0904    8.9348 C.ar    1  UNL1        0.1196
     10 N          60.0313   90.7842   10.2470 N.ar    1  UNL1       -0.2220
     11 C          60.5781   89.9044   11.3319 C.ar    1  UNL1        0.1829
     12 N          63.7518   89.0550   12.0993 N.am    1  UNL1       -0.2788
     13 C          64.0623   89.7476   13.3931 C.2     1  UNL1        0.2571
     14 O          63.7080   89.0956   14.6967 O.2     1  UNL1       -0.2692
     15 H          63.9844   89.4829   11.2438 H       1  UNL1        0.1552
     16 C          64.7273   91.0921   13.3833 C.ar    1  UNL1        0.1036
     17 C          65.2283   91.8366   14.5853 C.ar    1  UNL1        0.1105
     18 N          65.8186   93.1329   14.1147 N.ar    1  UNL1       -0.2351
     19 C          65.6824   93.1894   12.6219 C.ar    1  UNL1        0.1285
     20 S          65.0079   91.9282   12.1700 S.2     1  UNL1       -0.0604
     21 C          66.1402   94.3103   11.7367 C.ar    1  UNL1        0.1050
     22 C          66.7655   94.0085   10.4070 C.ar    1  UNL1        0.0212
     23 C          67.2234   95.1294    9.5218 C.ar    1  UNL1        0.0032
     24 C          67.0560   96.5523    9.9660 C.ar    1  UNL1        0.0207
     25 C          66.4307   96.8543   11.2957 C.ar    1  UNL1        0.0989
     26 N          65.9728   95.7332   12.1810 N.ar    1  UNL1       -0.2418
     27 N          63.0521   82.7179   13.5490 N.2     1  UNL1       -0.0873
     28 C          63.7120   84.0649   13.5477 C.2     1  UNL1        0.0974
     29 C          65.0169   84.2615   14.2607 C.3     1  UNL1        0.0555
     30 C          63.3160   80.1592   13.9144 C.3     1  UNL1        0.2885
     31 O          63.6971   81.5674   14.2634 O.2     1  UNL1       -0.3734
@<TRIPOS>BOND
     1    30    31    1
     2    31    27    1
     3    27    28    2
     4    28    29    1
     5    28     1    1
     6     1     2   ar
     7     2     3   ar
     8     3     4   ar
     9     4     7    1
    10     7     8   ar
    11     8     9   ar
    12     9    10   ar
    13    10    11   ar
    14     4     5   ar
    15     5    12    1
    16    12    13   am
    17    13    14    2
    18    13    16    1
    19    16    17   ar
    20    17    18   ar
    21    18    19   ar
    22    19    21    1
    23    21    22   ar
    24    22    23   ar
    25    23    24   ar
    26    24    25   ar
    27    25    26   ar
    28    19    20   ar
    29     5     6   ar
    30     6     1   ar
    31    11     7   ar
    32    20    16   ar
    33    26    21   ar
    34    12    15    1
@<TRIPOS>MOLECULE
*****
 31 34 0 0 0
SMALL
GASTEIGER

@<TRIPOS>ATOM
      1 C          72.6714   79.7985    9.9327 C.ar    1  UNL1        0.0180
      2 C          73.2947   80.8598   10.7901 C.ar    1  UNL1        0.0029
      3 C          73.4031   80.6585   12.2725 C.ar    1  UNL1        0.0189
      4 C          72.8884   79.3959   12.8976 C.ar    1  UNL1        0.0789
      5 C          72.2651   78.3346   12.0403 C.ar    1  UNL1        0.0670
      6 C          72.1567   78.5359   10.5578 C.ar    1  UNL1        0.0174
      7 N          72.9969   79.1946   14.3801 N.ar    1  UNL1       -0.2852
      8 C          72.5762   80.1736   15.4359 C.ar    1  UNL1        0.1023
      9 C          72.8644   79.5630   16.7754 C.ar    1  UNL1        0.1196
     10 N          73.4632   78.2067   16.5474 N.ar    1  UNL1       -0.2220
     11 C          73.5450   77.9791   15.0671 C.ar    1  UNL1        0.1829
     12 N          71.7503   77.0719   12.6654 N.am    1  UNL1       -0.2788
     13 C          72.4340   75.7656   12.3894 C.2     1  UNL1        0.2571
     14 O          73.6324   75.7219   11.4884 O.2     1  UNL1       -0.2692
     15 H          70.9638   77.1006   13.2568 H       1  UNL1        0.1552
     16 C          71.9192   74.5029   13.0145 C.ar    1  UNL1        0.1036
     17 C          71.3311   73.3330   12.2826 C.ar    1  UNL1        0.1105
     18 N          70.9505   72.2955   13.2970 N.ar    1  UNL1       -0.2351
     19 C          71.3034   72.8243   14.6557 C.ar    1  UNL1        0.1285
     20 S          71.9020   74.1885   14.4810 S.2     1  UNL1       -0.0604
     21 C          71.0943   72.1136   15.9599 C.ar    1  UNL1        0.1050
     22 C          71.4109   70.6520   16.0769 C.ar    1  UNL1        0.0212
     23 C          71.2018   69.9413   17.3811 C.ar    1  UNL1        0.0032
     24 C          70.6761   70.6921   18.5685 C.ar    1  UNL1        0.0207
     25 C          70.3595   72.1537   18.4516 C.ar    1  UNL1        0.0989
     26 N          70.5686   72.8644   17.1473 N.ar    1  UNL1       -0.2418
     27 N          71.4958   80.8932    7.8908 N.2     1  UNL1       -0.0873
     28 C          72.5629   79.9998    8.4502 C.2     1  UNL1        0.0974
     29 C          73.5216   79.3077    7.5272 C.3     1  UNL1        0.0555
     30 C          71.7434   82.4202    5.8034 C.3     1  UNL1        0.2885
     31 O          71.3873   81.0945    6.4083 O.2     1  UNL1       -0.3734
@<TRIPOS>BOND
     1    30    31    1
     2    31    27    1
     3    27    28    2
     4    28    29    1
     5    28     1    1
     6     1     2   ar
     7     2     3   ar
     8     3     4   ar
     9     4     7    1
    10     7     8   ar
    11     8     9   ar
    12     9    10   ar
    13    10    11   ar
    14     4     5   ar
    15     5    12    1
    16    12    13   am
    17    13    14    2
    18    13    16    1
    19    16    17   ar
    20    17    18   ar
    21    18    19   ar
    22    19    21    1
    23    21    22   ar
    24    22    23   ar
    25    23    24   ar
    26    24    25   ar
    27    25    26   ar
    28    19    20   ar
    29     5     6   ar
    30     6     1   ar
    31    11     7   ar
    32    20    16   ar
    33    26    21   ar
    34    12    15    1
