@<TRIPOS>MOLECULE
*****
 34 37 0 0 0
SMALL
GASTEIGER

@<TRIPOS>ATOM
      1 N          61.6760   86.1128   11.9824 N.pl3   1  UNL1       -0.3148
      2 H          60.9460   85.9436   12.6210 H       1  UNL1        0.1520
      3 C          61.7946   87.4517   11.3166 C.2     1  UNL1        0.0450
      4 C          62.7579   88.4711   11.8484 C.2     1  UNL1        0.0577
      5 C          62.8766   89.8098   11.1826 C.2     1  UNL1        0.1962
      6 N          62.0320   90.1294    9.9848 N.2     1  UNL1       -0.0378
      7 C          61.0687   89.1100    9.4530 C.2     1  UNL1        0.3604
      8 N          60.1126   89.1394    8.2975 N.2     1  UNL1       -0.0343
      9 C          59.4031   87.8188    8.2493 C.2     1  UNL1        0.2321
     10 C          59.9206   86.9731    9.3749 C.2     1  UNL1        0.0421
     11 C          60.9500   87.7711   10.1188 C.3     1  UNL1        0.1734
     12 C          63.8400   90.8293   11.7144 C.ar    1  UNL1        0.0713
     13 C          64.4237   91.8609   10.7952 C.ar    1  UNL1        0.0173
     14 C          65.3870   92.8803   11.3270 C.ar    1  UNL1        0.0579
     15 CL         65.9707   93.9119   10.4077 Cl      1  UNL1       -0.0822
     16 C          65.7667   92.8680   12.7781 C.ar    1  UNL1        0.0137
     17 C          65.1830   91.8364   13.6974 C.ar    1  UNL1        0.0306
     18 C          64.2197   90.8170   13.1655 C.ar    1  UNL1        0.1437
     19 F          63.6359   89.7853   14.0848 F       1  UNL1       -0.2040
     20 C          63.3636   84.3117   12.7934 C.ar    1  UNL1        0.0858
     21 C          64.3572   83.2307   12.4865 C.ar    1  UNL1        0.1046
     22 N          64.6566   82.8698   11.0616 N.ar    1  UNL1       -0.2421
     23 C          63.9625   83.5898    9.9438 C.ar    1  UNL1        0.1002
     24 C          62.9689   84.6709   10.2507 C.ar    1  UNL1        0.0354
     25 C          62.6695   85.0318   11.6755 C.ar    1  UNL1        0.0556
     26 N          64.1279   85.2939   15.0740 N.am    1  UNL1       -0.2985
     27 C          63.0642   84.6726   14.2182 C.2     1  UNL1        0.2486
     28 O          61.7009   84.4121   14.7873 O.2     1  UNL1       -0.2700
     29 H          65.0227   85.4648   14.7005 H       1  UNL1        0.1498
     30 C          63.8285   85.6548   16.4988 C.3     1  UNL1        0.1189
     31 C          63.1171   88.1242   16.8814 C.3     1  UNL1        0.0335
     32 C          62.7663   86.6676   16.8087 C.3     1  UNL1        0.1301
     33 O          61.3533   86.2237   17.0459 O.3     1  UNL1       -0.3827
     34 H          61.2991   85.2588   16.9624 H       1  UNL1        0.2104
@<TRIPOS>BOND
     1    32    31    1
     2    32    33    1
     3    32    30    1
     4    30    26    1
     5    26    27   am
     6    27    28    2
     7    27    20    1
     8    20    21   ar
     9    21    22   ar
    10    22    23   ar
    11    23    24   ar
    12    24    25   ar
    13    25     1    1
    14     1     3    1
    15     3     4    2
    16     4     5    1
    17     5    12    1
    18    12    13   ar
    19    13    14   ar
    20    14    15    1
    21    14    16   ar
    22    16    17   ar
    23    17    18   ar
    24    18    19    1
    25     5     6    2
    26     6     7    1
    27     7     8    2
    28     8     9    1
    29     9    10    2
    30    10    11    1
    31    25    20   ar
    32    11     3    1
    33    18    12   ar
    34    11     7    1
    35    33    34    1
    36    26    29    1
    37     1     2    1
@<TRIPOS>MOLECULE
*****
 34 37 0 0 0
SMALL
GASTEIGER

@<TRIPOS>ATOM
      1 N          61.6948   89.4254   12.0736 N.pl3   1  UNL1       -0.3148
      2 H          60.9469   89.6331   12.6793 H       1  UNL1        0.1520
      3 C          61.6158   88.2341   11.1656 C.2     1  UNL1        0.0450
      4 C          62.2756   86.9458   11.5594 C.2     1  UNL1        0.0577
      5 C          62.1967   85.7545   10.6515 C.2     1  UNL1        0.1962
      6 N          61.4580   85.8514    9.3495 N.2     1  UNL1       -0.0378
      7 C          60.7982   87.1396    8.9557 C.2     1  UNL1        0.3604
      8 N          60.0060   87.5320    7.7439 N.2     1  UNL1       -0.0343
      9 C          59.5952   88.9659    7.9030 C.2     1  UNL1        0.2321
     10 C          60.1337   89.4597    9.2131 C.2     1  UNL1        0.0421
     11 C          60.8771   88.3309    9.8637 C.3     1  UNL1        0.1734
     12 C          62.8565   84.4662   11.0454 C.ar    1  UNL1        0.0713
     13 C          62.7545   83.9727   12.4582 C.ar    1  UNL1        0.0173
     14 C          63.4142   82.6845   12.8522 C.ar    1  UNL1        0.0579
     15 CL         63.3122   82.1910   14.2650 Cl      1  UNL1       -0.0822
     16 C          64.1759   81.8898   11.8332 C.ar    1  UNL1        0.0137
     17 C          64.2779   82.3833   10.4204 C.ar    1  UNL1        0.0306
     18 C          63.6182   83.6715   10.0265 C.ar    1  UNL1        0.1437
     19 F          63.7201   84.1651    8.6137 F       1  UNL1       -0.2040
     20 C          63.8308   90.3282   13.2451 C.ar    1  UNL1        0.0858
     21 C          65.0491   91.2031   13.2303 C.ar    1  UNL1        0.1046
     22 N          65.3498   92.0500   12.0292 N.ar    1  UNL1       -0.2421
     23 C          64.4322   92.0220   10.8431 C.ar    1  UNL1        0.1002
     24 C          63.2137   91.1472   10.8578 C.ar    1  UNL1        0.0354
     25 C          62.9131   90.3003   12.0588 C.ar    1  UNL1        0.0556
     26 N          64.1421   88.1179   14.5746 N.am    1  UNL1       -0.2985
     27 C          63.5301   89.4813   14.4460 C.2     1  UNL1        0.2486
     28 O          62.6175   89.9979   15.5186 O.2     1  UNL1       -0.2700
     29 H          64.7411   87.7789   13.8706 H       1  UNL1        0.1498
     30 C          63.8415   87.2711   15.7755 C.3     1  UNL1        0.1189
     31 C          62.6948   84.9642   16.1136 C.3     1  UNL1        0.0335
     32 C          63.8745   85.7754   15.6660 C.3     1  UNL1        0.1301
     33 O          65.0873   85.0909   15.1087 O.3     1  UNL1       -0.3827
     34 H          65.7523   85.7553   14.8696 H       1  UNL1        0.2104
@<TRIPOS>BOND
     1    32    31    1
     2    32    33    1
     3    32    30    1
     4    30    26    1
     5    26    27   am
     6    27    28    2
     7    27    20    1
     8    20    21   ar
     9    21    22   ar
    10    22    23   ar
    11    23    24   ar
    12    24    25   ar
    13    25     1    1
    14     1     3    1
    15     3     4    2
    16     4     5    1
    17     5    12    1
    18    12    13   ar
    19    13    14   ar
    20    14    15    1
    21    14    16   ar
    22    16    17   ar
    23    17    18   ar
    24    18    19    1
    25     5     6    2
    26     6     7    1
    27     7     8    2
    28     8     9    1
    29     9    10    2
    30    10    11    1
    31    25    20   ar
    32    11     3    1
    33    18    12   ar
    34    11     7    1
    35    33    34    1
    36    26    29    1
    37     1     2    1
@<TRIPOS>MOLECULE
*****
 34 37 0 0 0
SMALL
GASTEIGER

@<TRIPOS>ATOM
      1 N          64.3636   86.9162   14.1473 N.pl3   1  UNL1       -0.3148
      2 H          65.2421   86.5023   13.9858 H       1  UNL1        0.1520
      3 C          63.7391   87.7849   13.0959 C.2     1  UNL1        0.0450
      4 C          62.9330   87.1656   11.9929 C.2     1  UNL1        0.0577
      5 C          62.3086   88.0343   10.9416 C.2     1  UNL1        0.1962
      6 N          62.4903   89.5224   10.9932 N.2     1  UNL1       -0.0378
      7 C          63.2964   90.1417   12.0961 C.2     1  UNL1        0.3604
      8 N          63.6459   91.5673   12.4052 N.2     1  UNL1       -0.0343
      9 C          64.4863   91.5796   13.6476 C.2     1  UNL1        0.2321
     10 C          64.6562   90.1617   14.1064 C.2     1  UNL1        0.0421
     11 C          63.9208   89.2730   13.1475 C.3     1  UNL1        0.1734
     12 C          61.5024   87.4149    9.8386 C.ar    1  UNL1        0.0713
     13 C          62.1446   86.4399    8.8968 C.ar    1  UNL1        0.0173
     14 C          61.3384   85.8206    7.7938 C.ar    1  UNL1        0.0579
     15 CL         61.9806   84.8456    6.8519 Cl      1  UNL1       -0.0822
     16 C          59.8902   86.1762    7.6326 C.ar    1  UNL1        0.0137
     17 C          59.2480   87.1512    8.5745 C.ar    1  UNL1        0.0306
     18 C          60.0541   87.7705    9.6775 C.ar    1  UNL1        0.1437
     19 F          59.4120   88.7456   10.6194 F       1  UNL1       -0.2040
     20 C          63.1182   85.3131   15.7688 C.ar    1  UNL1        0.0858
     21 C          62.4041   85.0750   17.0662 C.ar    1  UNL1        0.1046
     22 N          62.2211   86.2017   18.0395 N.ar    1  UNL1       -0.2421
     23 C          62.7523   87.5664   17.7154 C.ar    1  UNL1        0.1002
     24 C          63.4665   87.8047   16.4179 C.ar    1  UNL1        0.0354
     25 C          63.6494   86.6780   15.4447 C.ar    1  UNL1        0.0556
     26 N          62.4851   84.1420   13.5378 N.am    1  UNL1       -0.2985
     27 C          63.3011   84.1865   14.7956 C.2     1  UNL1        0.2486
     28 O          64.3001   83.1043   15.0803 O.2     1  UNL1       -0.2700
     29 H          61.8295   84.8522   13.3511 H       1  UNL1        0.1498
     30 C          62.6680   83.0153   12.5646 C.3     1  UNL1        0.1189
     31 C          63.8416   83.5145   10.3011 C.3     1  UNL1        0.0335
     32 C          63.8899   82.9653   11.6960 C.3     1  UNL1        0.1301
     33 O          65.1603   82.3661   12.2225 O.3     1  UNL1       -0.3827
     34 H          65.0210   82.0612   13.1327 H       1  UNL1        0.2104
@<TRIPOS>BOND
     1    32    31    1
     2    32    33    1
     3    32    30    1
     4    30    26    1
     5    26    27   am
     6    27    28    2
     7    27    20    1
     8    20    21   ar
     9    21    22   ar
    10    22    23   ar
    11    23    24   ar
    12    24    25   ar
    13    25     1    1
    14     1     3    1
    15     3     4    2
    16     4     5    1
    17     5    12    1
    18    12    13   ar
    19    13    14   ar
    20    14    15    1
    21    14    16   ar
    22    16    17   ar
    23    17    18   ar
    24    18    19    1
    25     5     6    2
    26     6     7    1
    27     7     8    2
    28     8     9    1
    29     9    10    2
    30    10    11    1
    31    25    20   ar
    32    11     3    1
    33    18    12   ar
    34    11     7    1
    35    33    34    1
    36    26    29    1
    37     1     2    1
@<TRIPOS>MOLECULE
*****
 34 37 0 0 0
SMALL
GASTEIGER

@<TRIPOS>ATOM
      1 N          64.2089   86.9164   13.9161 N.pl3   1  UNL1       -0.3148
      2 H          65.0288   86.4347   13.6614 H       1  UNL1        0.1520
      3 C          63.6205   87.9381   12.9887 C.2     1  UNL1        0.0450
      4 C          62.7186   87.5053   11.8710 C.2     1  UNL1        0.0577
      5 C          62.1303   88.5269   10.9436 C.2     1  UNL1        0.1962
      6 N          62.4439   89.9814   11.1339 N.2     1  UNL1       -0.0378
      7 C          63.3458   90.4142   12.2515 C.2     1  UNL1        0.3604
      8 N          63.8315   91.7662   12.6831 N.2     1  UNL1       -0.0343
      9 C          64.7199   91.5801   13.8772 C.2     1  UNL1        0.2321
     10 C          64.7834   90.1131   14.1837 C.2     1  UNL1        0.0421
     11 C          63.9342   89.3925   13.1789 C.3     1  UNL1        0.1734
     12 C          61.2283   88.0941    9.8259 C.ar    1  UNL1        0.0713
     13 C          60.6171   89.1181    8.9161 C.ar    1  UNL1        0.0173
     14 C          59.7151   88.6854    7.7984 C.ar    1  UNL1        0.0579
     15 CL         59.1039   89.7094    6.8886 Cl      1  UNL1       -0.0822
     16 C          59.4245   87.2286    7.5906 C.ar    1  UNL1        0.0137
     17 C          60.0357   86.2045    8.5004 C.ar    1  UNL1        0.0306
     18 C          60.9376   86.6373    9.6180 C.ar    1  UNL1        0.1437
     19 F          61.5490   85.6133   10.5279 F       1  UNL1       -0.2040
     20 C          63.0089   85.2581   15.5161 C.ar    1  UNL1        0.0858
     21 C          62.3479   84.9704   16.8315 C.ar    1  UNL1        0.1046
     22 N          62.2260   86.0533   17.8624 N.ar    1  UNL1       -0.2421
     23 C          62.7650   87.4238   17.5778 C.ar    1  UNL1        0.1002
     24 C          63.4260   87.7116   16.2623 C.ar    1  UNL1        0.0354
     25 C          63.5479   86.6287   15.2315 C.ar    1  UNL1        0.0556
     26 N          63.6439   82.8213   14.8769 N.am    1  UNL1       -0.2985
     27 C          63.1307   84.1752   14.4853 C.2     1  UNL1        0.2486
     28 O          62.7394   84.4465   13.0628 O.2     1  UNL1       -0.2700
     29 H          63.9007   82.6434   15.8105 H       1  UNL1        0.1498
     30 C          63.7657   81.7385   13.8461 C.3     1  UNL1        0.1189
     31 C          61.2599   81.1336   14.1703 C.3     1  UNL1        0.0335
     32 C          62.5546   80.9551   13.4342 C.3     1  UNL1        0.1301
     33 O          62.6383   79.9932   12.2863 O.3     1  UNL1       -0.3827
     34 H          63.5384   79.9988   11.9248 H       1  UNL1        0.2104
@<TRIPOS>BOND
     1    32    31    1
     2    32    33    1
     3    32    30    1
     4    30    26    1
     5    26    27   am
     6    27    28    2
     7    27    20    1
     8    20    21   ar
     9    21    22   ar
    10    22    23   ar
    11    23    24   ar
    12    24    25   ar
    13    25     1    1
    14     1     3    1
    15     3     4    2
    16     4     5    1
    17     5    12    1
    18    12    13   ar
    19    13    14   ar
    20    14    15    1
    21    14    16   ar
    22    16    17   ar
    23    17    18   ar
    24    18    19    1
    25     5     6    2
    26     6     7    1
    27     7     8    2
    28     8     9    1
    29     9    10    2
    30    10    11    1
    31    25    20   ar
    32    11     3    1
    33    18    12   ar
    34    11     7    1
    35    33    34    1
    36    26    29    1
    37     1     2    1
@<TRIPOS>MOLECULE
*****
 34 37 0 0 0
SMALL
GASTEIGER

@<TRIPOS>ATOM
      1 N          64.5448   86.0710   14.2265 N.pl3   1  UNL1       -0.3148
      2 H          65.5246   86.0824   14.1315 H       1  UNL1        0.1520
      3 C          63.6895   85.5430   13.1131 C.2     1  UNL1        0.0450
      4 C          62.9438   86.4939   12.2246 C.2     1  UNL1        0.0577
      5 C          62.0885   85.9659   11.1113 C.2     1  UNL1        0.1962
      6 N          61.9788   84.4869   10.8864 N.2     1  UNL1       -0.0378
      7 C          62.7245   83.5359   11.7749 C.2     1  UNL1        0.3604
      8 N          62.8095   82.0385   11.7953 N.2     1  UNL1       -0.0343
      9 C          63.7173   81.6411   12.9213 C.2     1  UNL1        0.2321
     10 C          64.1934   82.8928   13.5968 C.2     1  UNL1        0.0421
     11 C          63.5799   84.0640   12.8883 C.3     1  UNL1        0.1734
     12 C          61.3427   86.9170   10.2226 C.ar    1  UNL1        0.0713
     13 C          60.9119   88.2539   10.7490 C.ar    1  UNL1        0.0173
     14 C          60.1662   89.2049    9.8604 C.ar    1  UNL1        0.0579
     15 CL         59.7354   90.5419   10.3867 Cl      1  UNL1       -0.0822
     16 C          59.8513   88.8190    8.4456 C.ar    1  UNL1        0.0137
     17 C          60.2821   87.4820    7.9192 C.ar    1  UNL1        0.0306
     18 C          61.0278   86.5310    8.8078 C.ar    1  UNL1        0.1437
     19 F          61.4587   85.1940    8.2815 F       1  UNL1       -0.2040
     20 C          63.7223   88.0564   15.6865 C.ar    1  UNL1        0.0858
     21 C          63.0847   88.5670   16.9446 C.ar    1  UNL1        0.1046
     22 N          62.6321   87.6027   18.0008 N.ar    1  UNL1       -0.2421
     23 C          62.8171   86.1280   17.7989 C.ar    1  UNL1        0.1002
     24 C          63.4547   85.6174   16.5408 C.ar    1  UNL1        0.0354
     25 C          63.9072   86.5816   15.4846 C.ar    1  UNL1        0.0556
     26 N          64.9645   90.2368   15.0138 N.am    1  UNL1       -0.2985
     27 C          64.1748   89.0206   14.6303 C.2     1  UNL1        0.2486
     28 O          63.8375   88.7685   13.1906 O.2     1  UNL1       -0.2700
     29 H          65.1858   90.4022   15.9587 H       1  UNL1        0.1498
     30 C          65.4170   91.2010   13.9577 C.3     1  UNL1        0.1189
     31 C          67.8964   91.9772   13.9336 C.3     1  UNL1        0.0335
     32 C          66.4590   92.2310   14.2792 C.3     1  UNL1        0.1301
     33 O          66.0635   93.5150   14.9463 O.3     1  UNL1       -0.3827
     34 H          65.1056   93.5185   15.0986 H       1  UNL1        0.2104
@<TRIPOS>BOND
     1    32    31    1
     2    32    33    1
     3    32    30    1
     4    30    26    1
     5    26    27   am
     6    27    28    2
     7    27    20    1
     8    20    21   ar
     9    21    22   ar
    10    22    23   ar
    11    23    24   ar
    12    24    25   ar
    13    25     1    1
    14     1     3    1
    15     3     4    2
    16     4     5    1
    17     5    12    1
    18    12    13   ar
    19    13    14   ar
    20    14    15    1
    21    14    16   ar
    22    16    17   ar
    23    17    18   ar
    24    18    19    1
    25     5     6    2
    26     6     7    1
    27     7     8    2
    28     8     9    1
    29     9    10    2
    30    10    11    1
    31    25    20   ar
    32    11     3    1
    33    18    12   ar
    34    11     7    1
    35    33    34    1
    36    26    29    1
    37     1     2    1
@<TRIPOS>MOLECULE
*****
 34 37 0 0 0
SMALL
GASTEIGER

@<TRIPOS>ATOM
      1 N          64.5292   86.2609   14.2411 N.pl3   1  UNL1       -0.3148
      2 H          65.4571   86.5044   14.0201 H       1  UNL1        0.1520
      3 C          63.7568   85.3492   13.3344 C.2     1  UNL1        0.0450
      4 C          63.0833   85.9007   12.1128 C.2     1  UNL1        0.0577
      5 C          62.3109   84.9891   11.2061 C.2     1  UNL1        0.1962
      6 N          62.2119   83.5258   11.5209 N.2     1  UNL1       -0.0378
      7 C          62.8854   82.9742   12.7424 C.2     1  UNL1        0.3604
      8 N          62.9621   81.5862   13.3058 N.2     1  UNL1       -0.0343
      9 C          63.7820   81.6400   14.5607 C.2     1  UNL1        0.2321
     10 C          64.2119   83.0613   14.7730 C.2     1  UNL1        0.0421
     11 C          63.6578   83.8859   13.6492 C.3     1  UNL1        0.1734
     12 C          61.6374   85.5407    9.9845 C.ar    1  UNL1        0.0713
     13 C          61.9375   84.9583    8.6351 C.ar    1  UNL1        0.0173
     14 C          61.2640   85.5099    7.4136 C.ar    1  UNL1        0.0579
     15 CL         61.5641   84.9274    6.0642 Cl      1  UNL1       -0.0822
     16 C          60.2905   86.6439    7.5414 C.ar    1  UNL1        0.0137
     17 C          59.9905   87.2263    8.8907 C.ar    1  UNL1        0.0306
     18 C          60.6639   86.6747   10.1123 C.ar    1  UNL1        0.1437
     19 F          60.3639   87.2571   11.4617 F       1  UNL1       -0.2040
     20 C          63.7321   88.2825   15.6652 C.ar    1  UNL1        0.0858
     21 C          63.0907   88.8231   16.9087 C.ar    1  UNL1        0.1046
     22 N          62.6050   87.8827   17.9717 N.ar    1  UNL1       -0.2421
     23 C          62.7607   86.4019   17.7911 C.ar    1  UNL1        0.1002
     24 C          63.4021   85.8612   16.5476 C.ar    1  UNL1        0.0354
     25 C          63.8878   86.8015   15.4847 C.ar    1  UNL1        0.0556
     26 N          65.0831   90.3907   14.9724 N.am    1  UNL1       -0.2985
     27 C          64.2179   89.2228   14.6022 C.2     1  UNL1        0.2486
     28 O          63.8382   88.9951   13.1690 O.2     1  UNL1       -0.2700
     29 H          65.3322   90.5401   15.9131 H       1  UNL1        0.1498
     30 C          65.5688   91.3310   13.9095 C.3     1  UNL1        0.1189
     31 C          66.7583   92.7673   15.7185 C.3     1  UNL1        0.0335
     32 C          66.4469   92.4901   14.2776 C.3     1  UNL1        0.1301
     33 O          67.0135   93.3721   13.2048 O.3     1  UNL1       -0.3827
     34 H          66.7170   93.0566   12.3367 H       1  UNL1        0.2104
@<TRIPOS>BOND
     1    32    31    1
     2    32    33    1
     3    32    30    1
     4    30    26    1
     5    26    27   am
     6    27    28    2
     7    27    20    1
     8    20    21   ar
     9    21    22   ar
    10    22    23   ar
    11    23    24   ar
    12    24    25   ar
    13    25     1    1
    14     1     3    1
    15     3     4    2
    16     4     5    1
    17     5    12    1
    18    12    13   ar
    19    13    14   ar
    20    14    15    1
    21    14    16   ar
    22    16    17   ar
    23    17    18   ar
    24    18    19    1
    25     5     6    2
    26     6     7    1
    27     7     8    2
    28     8     9    1
    29     9    10    2
    30    10    11    1
    31    25    20   ar
    32    11     3    1
    33    18    12   ar
    34    11     7    1
    35    33    34    1
    36    26    29    1
    37     1     2    1
