@<TRIPOS>MOLECULE
*****
 41 44 0 0 0
SMALL
GASTEIGER

@<TRIPOS>ATOM
      1 C          63.4120   90.5248   14.2354 C.3     1  UNL1        0.1146
      2 C          63.5569   89.2556   15.0217 C.ar    1  UNL1        0.0045
      3 C          63.0354   89.1797   16.4261 C.ar    1  UNL1        0.0275
      4 C          63.1803   87.9106   17.2124 C.ar    1  UNL1        0.1429
      5 F          62.7198   87.6620   18.6181 F       1  UNL1       -0.2041
      6 C          63.8467   86.7174   16.5943 C.ar    1  UNL1        0.0667
      7 C          64.3682   86.7933   15.1899 C.ar    1  UNL1        0.1461
      8 C          64.2233   88.0624   14.4036 C.ar    1  UNL1        0.0349
      9 O          65.0346   85.5999   14.5718 O.3     1  UNL1       -0.4263
     10 C          64.2078   84.4442   14.0915 C.3     1  UNL1        0.4723
     11 F          64.6055   83.6558   15.3039 F       1  UNL1       -0.1579
     12 F          63.8100   85.2327   12.8790 F       1  UNL1       -0.1579
     13 C          63.3810   83.2885   13.6112 C.3     1  UNL1        0.4202
     14 F          63.5847   81.9244   14.2008 F       1  UNL1       -0.1876
     15 F          62.3505   83.4969   12.5412 F       1  UNL1       -0.1876
     16 C          64.7745   90.9601   14.6870 C.ar    1  UNL1        0.0792
     17 C          65.9990   90.3677   14.0547 C.ar    1  UNL1        0.0175
     18 C          67.3616   90.8031   14.5063 C.ar    1  UNL1        0.0142
     19 C          67.4996   91.8307   15.5902 C.ar    1  UNL1        0.0768
     20 CL         68.8622   92.2661   16.0418 Cl      1  UNL1       -0.0806
     21 C          66.2752   92.4231   16.2225 C.ar    1  UNL1        0.1098
     22 N          64.9126   91.9878   15.7709 N.ar    1  UNL1       -0.2454
     23 N          62.0494   90.0895   13.7838 N.pl3   1  UNL1       -0.3078
     24 H          61.2689   90.2316   14.3668 H       1  UNL1        0.1492
     25 C          60.6213   88.9993    8.7668 C.3     1  UNL1        0.0398
     26 C          61.1846   89.0109   10.1569 C.ar    1  UNL1        0.0318
     27 S          61.0872   89.9865   11.2921 S.2     1  UNL1       -0.0562
     28 C          61.8760   89.4378   12.4439 C.ar    1  UNL1        0.1599
     29 N          62.4609   88.1231   12.0206 N.ar    1  UNL1       -0.2206
     30 C          62.0336   87.8592   10.6072 C.ar    1  UNL1        0.1565
     31 C          62.3924   86.6550    9.7879 C.3     1  UNL1        0.4351
     32 F          62.7511   85.4508    8.9685 F       1  UNL1       -0.1644
     33 F          63.2973   87.5004    8.9416 F       1  UNL1       -0.1644
     34 F          61.4874   85.8095   10.6342 F       1  UNL1       -0.1644
     35 C          63.2671   91.7940   13.4492 C.3     1  UNL1        0.0543
     36 C          64.2943   92.1594   12.4189 C.ar    1  UNL1       -0.0199
     37 C          64.2226   91.5638   11.0441 C.ar    1  UNL1       -0.0042
     38 C          65.2498   91.9293   10.0140 C.ar    1  UNL1       -0.0003
     39 C          66.3486   92.8904   10.3586 C.ar    1  UNL1       -0.0000
     40 C          66.4203   93.4860   11.7333 C.ar    1  UNL1       -0.0003
     41 C          65.3931   93.1206   12.7635 C.ar    1  UNL1       -0.0042
@<TRIPOS>BOND
     1    25    26    1
     2    26    27   ar
     3    27    28   ar
     4    28    23    1
     5    23     1    1
     6     1    35    1
     7    35    36    1
     8    36    37   ar
     9    37    38   ar
    10    38    39   ar
    11    39    40   ar
    12    40    41   ar
    13     1     2    1
    14     2     3   ar
    15     3     4   ar
    16     4     5    1
    17     4     6   ar
    18     6     7   ar
    19     7     9    1
    20     9    10    1
    21    10    11    1
    22    10    12    1
    23    10    13    1
    24    13    14    1
    25    13    15    1
    26     7     8   ar
    27     1    16    1
    28    16    17   ar
    29    17    18   ar
    30    18    19   ar
    31    19    20    1
    32    19    21   ar
    33    21    22   ar
    34    28    29   ar
    35    29    30   ar
    36    30    31    1
    37    31    32    1
    38    31    33    1
    39    31    34    1
    40    30    26   ar
    41    41    36   ar
    42     8     2   ar
    43    22    16   ar
    44    23    24    1
@<TRIPOS>MOLECULE
*****
 41 44 0 0 0
SMALL
GASTEIGER

@<TRIPOS>ATOM
      1 C          62.1941   86.9551   10.8146 C.3     1  UNL1        0.1146
      2 C          62.6964   85.6732   11.4102 C.ar    1  UNL1        0.0045
      3 C          62.6955   84.4154   10.5929 C.ar    1  UNL1        0.0275
      4 C          63.1977   83.1337   11.1885 C.ar    1  UNL1        0.1429
      5 F          63.2675   81.7934   10.5186 F       1  UNL1       -0.2041
      6 C          63.7009   83.1096   12.6013 C.ar    1  UNL1        0.0667
      7 C          63.7018   84.3674   13.4186 C.ar    1  UNL1        0.1461
      8 C          63.1996   85.6492   12.8231 C.ar    1  UNL1        0.0349
      9 O          64.2050   84.3434   14.8316 O.3     1  UNL1       -0.4263
     10 C          63.7237   85.3671   15.8166 C.3     1  UNL1        0.4723
     11 F          62.5544   84.4910   16.1558 F       1  UNL1       -0.1579
     12 F          64.8931   86.2431   15.4775 F       1  UNL1       -0.1579
     13 C          63.2425   86.3908   16.8017 C.3     1  UNL1        0.4202
     14 F          63.4845   87.8490   16.5465 F       1  UNL1       -0.1876
     15 F          62.5192   85.9563   18.0419 F       1  UNL1       -0.1876
     16 C          62.0302   86.2744    9.4880 C.ar    1  UNL1        0.0792
     17 C          63.2331   85.7547    8.7580 C.ar    1  UNL1        0.0175
     18 C          63.0692   85.0739    7.4314 C.ar    1  UNL1        0.0142
     19 C          61.7024   84.9130    6.8349 C.ar    1  UNL1        0.0768
     20 CL         61.5384   84.2323    5.5083 Cl      1  UNL1       -0.0806
     21 C          60.4995   85.4327    7.5649 C.ar    1  UNL1        0.1098
     22 N          60.6634   86.1134    8.8914 N.ar    1  UNL1       -0.2454
     23 N          62.3580   87.6358   12.1411 N.pl3   1  UNL1       -0.3078
     24 H          61.9462   87.2487   12.9472 H       1  UNL1        0.1492
     25 C          65.2242   91.7572   13.9293 C.3     1  UNL1        0.0398
     26 C          64.4510   90.7520   13.1283 C.ar    1  UNL1        0.0318
     27 S          63.7499   89.4763   13.4904 S.2     1  UNL1       -0.0562
     28 C          63.1495   88.9062   12.2395 C.ar    1  UNL1        0.1599
     29 N          63.4796   89.8295   11.1044 N.ar    1  UNL1       -0.2206
     30 C          64.2839   90.9703   11.6537 C.ar    1  UNL1        0.1565
     31 C          64.8260   92.1264   10.8666 C.3     1  UNL1        0.4351
     32 F          65.3681   93.2825   10.0795 F       1  UNL1       -0.1644
     33 F          66.1406   91.9932   11.5763 F       1  UNL1       -0.1644
     34 F          63.5113   92.2597   10.1568 F       1  UNL1       -0.1644
     35 C          61.6919   88.2368   10.2189 C.3     1  UNL1        0.0543
     36 C          60.5559   88.9709   10.8677 C.ar    1  UNL1       -0.0199
     37 C          59.6158   88.2416   11.7810 C.ar    1  UNL1       -0.0042
     38 C          58.4799   88.9756   12.4296 C.ar    1  UNL1       -0.0003
     39 C          58.2842   90.4391   12.1650 C.ar    1  UNL1       -0.0000
     40 C          59.2243   91.1684   11.2517 C.ar    1  UNL1       -0.0003
     41 C          60.3602   90.4344   10.6031 C.ar    1  UNL1       -0.0042
@<TRIPOS>BOND
     1    25    26    1
     2    26    27   ar
     3    27    28   ar
     4    28    23    1
     5    23     1    1
     6     1    35    1
     7    35    36    1
     8    36    37   ar
     9    37    38   ar
    10    38    39   ar
    11    39    40   ar
    12    40    41   ar
    13     1     2    1
    14     2     3   ar
    15     3     4   ar
    16     4     5    1
    17     4     6   ar
    18     6     7   ar
    19     7     9    1
    20     9    10    1
    21    10    11    1
    22    10    12    1
    23    10    13    1
    24    13    14    1
    25    13    15    1
    26     7     8   ar
    27     1    16    1
    28    16    17   ar
    29    17    18   ar
    30    18    19   ar
    31    19    20    1
    32    19    21   ar
    33    21    22   ar
    34    28    29   ar
    35    29    30   ar
    36    30    31    1
    37    31    32    1
    38    31    33    1
    39    31    34    1
    40    30    26   ar
    41    41    36   ar
    42     8     2   ar
    43    22    16   ar
    44    23    24    1
@<TRIPOS>MOLECULE
*****
 41 44 0 0 0
SMALL
GASTEIGER

@<TRIPOS>ATOM
      1 C          63.0380   88.8851   12.7010 C.3     1  UNL1        0.1146
      2 C          61.9230   89.3669   11.8208 C.ar    1  UNL1        0.0045
      3 C          60.8912   90.3096   12.3656 C.ar    1  UNL1        0.0275
      4 C          59.7763   90.7914   11.4854 C.ar    1  UNL1        0.1429
      5 F          58.6680   91.7285   11.8640 F       1  UNL1       -0.2041
      6 C          59.6931   90.3305   10.0605 C.ar    1  UNL1        0.0667
      7 C          60.7249   89.3878    9.5157 C.ar    1  UNL1        0.1461
      8 C          61.8398   88.9060   10.3958 C.ar    1  UNL1        0.0349
      9 O          60.6416   88.9269    8.0906 O.3     1  UNL1       -0.4263
     10 C          60.0177   87.6020    7.7661 C.3     1  UNL1        0.4723
     11 F          58.6892   88.2732    7.5801 F       1  UNL1       -0.1579
     12 F          61.3462   86.9308    7.9520 F       1  UNL1       -0.1579
     13 C          59.3938   86.2771    7.4416 C.3     1  UNL1        0.4202
     14 F          60.2460   85.1498    6.9387 F       1  UNL1       -0.1876
     15 F          57.9175   86.0795    7.6199 F       1  UNL1       -0.1876
     16 C          63.7893   90.1580   12.4461 C.ar    1  UNL1        0.0792
     17 C          64.5990   90.7836   13.5429 C.ar    1  UNL1        0.0175
     18 C          65.3503   92.0567   13.2878 C.ar    1  UNL1        0.0142
     19 C          65.2919   92.7040   11.9360 C.ar    1  UNL1        0.0768
     20 CL         66.0432   93.9771   11.6809 Cl      1  UNL1       -0.0806
     21 C          64.4822   92.0784   10.8392 C.ar    1  UNL1        0.1098
     22 N          63.7309   90.8055   11.0942 N.ar    1  UNL1       -0.2454
     23 N          62.2867   87.6121   12.9560 N.pl3   1  UNL1       -0.3078
     24 H          61.5949   87.5806   13.6558 H       1  UNL1        0.1492
     25 C          63.1750   84.2177    8.9451 C.3     1  UNL1        0.0398
     26 C          62.9816   84.9018   10.2659 C.ar    1  UNL1        0.0318
     27 S          62.6483   86.3135   10.6478 S.2     1  UNL1       -0.0562
     28 C          62.5894   86.3872   12.1448 C.ar    1  UNL1        0.1599
     29 N          62.8862   85.0210   12.6882 N.ar    1  UNL1       -0.2206
     30 C          63.1286   84.1029   11.5270 C.ar    1  UNL1        0.1565
     31 C          63.4599   82.6424   11.6119 C.3     1  UNL1        0.4351
     32 F          63.7912   81.1819   11.6968 F       1  UNL1       -0.1644
     33 F          64.9048   82.9555   11.3593 F       1  UNL1       -0.1644
     34 F          62.0148   82.3293   11.8646 F       1  UNL1       -0.1644
     35 C          64.1529   88.4034   13.5812 C.3     1  UNL1        0.0543
     36 C          63.8458   87.8153   14.9266 C.ar    1  UNL1       -0.0199
     37 C          63.2480   88.6738   16.0016 C.ar    1  UNL1       -0.0042
     38 C          62.9409   88.0858   17.3469 C.ar    1  UNL1       -0.0003
     39 C          63.2316   86.6392   17.6172 C.ar    1  UNL1       -0.0000
     40 C          63.8294   85.7808   16.5422 C.ar    1  UNL1       -0.0003
     41 C          64.1365   86.3688   15.1969 C.ar    1  UNL1       -0.0042
@<TRIPOS>BOND
     1    25    26    1
     2    26    27   ar
     3    27    28   ar
     4    28    23    1
     5    23     1    1
     6     1    35    1
     7    35    36    1
     8    36    37   ar
     9    37    38   ar
    10    38    39   ar
    11    39    40   ar
    12    40    41   ar
    13     1     2    1
    14     2     3   ar
    15     3     4   ar
    16     4     5    1
    17     4     6   ar
    18     6     7   ar
    19     7     9    1
    20     9    10    1
    21    10    11    1
    22    10    12    1
    23    10    13    1
    24    13    14    1
    25    13    15    1
    26     7     8   ar
    27     1    16    1
    28    16    17   ar
    29    17    18   ar
    30    18    19   ar
    31    19    20    1
    32    19    21   ar
    33    21    22   ar
    34    28    29   ar
    35    29    30   ar
    36    30    31    1
    37    31    32    1
    38    31    33    1
    39    31    34    1
    40    30    26   ar
    41    41    36   ar
    42     8     2   ar
    43    22    16   ar
    44    23    24    1
@<TRIPOS>MOLECULE
*****
 41 44 0 0 0
SMALL
GASTEIGER

@<TRIPOS>ATOM
      1 C          62.7380   88.6152   12.3370 C.3     1  UNL1        0.1146
      2 C          61.6257   89.1396   11.4778 C.ar    1  UNL1        0.0045
      3 C          60.6575   90.1415   12.0333 C.ar    1  UNL1        0.0275
      4 C          59.5453   90.6659   11.1742 C.ar    1  UNL1        0.1429
      5 F          58.4959   91.6636   11.5656 F       1  UNL1       -0.2041
      6 C          59.4013   90.1882    9.7596 C.ar    1  UNL1        0.0667
      7 C          60.3696   89.1862    9.2041 C.ar    1  UNL1        0.1461
      8 C          61.4818   88.6619   10.0632 C.ar    1  UNL1        0.0349
      9 O          60.2256   88.7086    7.7895 O.3     1  UNL1       -0.4263
     10 C          59.4830   89.5427    6.7881 C.3     1  UNL1        0.4723
     11 F          60.7232   90.3491    6.5401 F       1  UNL1       -0.1579
     12 F          58.2427   88.7364    7.0362 F       1  UNL1       -0.1579
     13 C          58.7404   90.3769    5.7868 C.3     1  UNL1        0.4202
     14 F          57.2406   90.3657    5.7663 F       1  UNL1       -0.1876
     15 F          59.4976   91.2223    4.8060 F       1  UNL1       -0.1876
     16 C          63.5265   89.8648   12.0787 C.ar    1  UNL1        0.0792
     17 C          63.4834   90.5128   10.7265 C.ar    1  UNL1        0.0175
     18 C          64.2720   91.7624   10.4683 C.ar    1  UNL1        0.0142
     19 C          65.1036   92.3640   11.5621 C.ar    1  UNL1        0.0768
     20 CL         65.8921   93.6137   11.3039 Cl      1  UNL1       -0.0806
     21 C          65.1466   91.7160   12.9143 C.ar    1  UNL1        0.1098
     22 N          64.3581   90.4665   13.1726 N.ar    1  UNL1       -0.2454
     23 N          61.9494   87.3657   12.5952 N.pl3   1  UNL1       -0.3078
     24 H          61.0957   87.4144   13.0830 H       1  UNL1        0.1492
     25 C          63.8569   83.4058    9.5818 C.3     1  UNL1        0.0398
     26 C          63.3307   84.2885   10.6745 C.ar    1  UNL1        0.0318
     27 S          62.8933   85.7229   10.7096 S.2     1  UNL1       -0.0562
     28 C          62.4617   86.0418   12.1103 C.ar    1  UNL1        0.1599
     29 N          62.6325   84.8046   12.9410 N.ar    1  UNL1       -0.2206
     30 C          63.1695   83.7210   12.0537 C.ar    1  UNL1        0.1565
     31 C          63.4892   82.3164   12.4720 C.3     1  UNL1        0.4351
     32 F          63.8090   80.9118   12.8903 F       1  UNL1       -0.1644
     33 F          62.1273   81.8736   12.0261 F       1  UNL1       -0.1644
     34 F          64.8512   82.7592   12.9179 F       1  UNL1       -0.1644
     35 C          63.8502   88.0910   13.1961 C.3     1  UNL1        0.0543
     36 C          63.6198   87.8542   14.6593 C.ar    1  UNL1       -0.0199
     37 C          63.8022   86.4810   15.2347 C.ar    1  UNL1       -0.0042
     38 C          63.5719   86.2443   16.6978 C.ar    1  UNL1       -0.0003
     39 C          63.1591   87.3807   17.5856 C.ar    1  UNL1       -0.0000
     40 C          62.9767   88.7539   17.0102 C.ar    1  UNL1       -0.0003
     41 C          63.2071   88.9906   15.5471 C.ar    1  UNL1       -0.0042
@<TRIPOS>BOND
     1    25    26    1
     2    26    27   ar
     3    27    28   ar
     4    28    23    1
     5    23     1    1
     6     1    35    1
     7    35    36    1
     8    36    37   ar
     9    37    38   ar
    10    38    39   ar
    11    39    40   ar
    12    40    41   ar
    13     1     2    1
    14     2     3   ar
    15     3     4   ar
    16     4     5    1
    17     4     6   ar
    18     6     7   ar
    19     7     9    1
    20     9    10    1
    21    10    11    1
    22    10    12    1
    23    10    13    1
    24    13    14    1
    25    13    15    1
    26     7     8   ar
    27     1    16    1
    28    16    17   ar
    29    17    18   ar
    30    18    19   ar
    31    19    20    1
    32    19    21   ar
    33    21    22   ar
    34    28    29   ar
    35    29    30   ar
    36    30    31    1
    37    31    32    1
    38    31    33    1
    39    31    34    1
    40    30    26   ar
    41    41    36   ar
    42     8     2   ar
    43    22    16   ar
    44    23    24    1
@<TRIPOS>MOLECULE
*****
 41 44 0 0 0
SMALL
GASTEIGER

@<TRIPOS>ATOM
      1 C          62.2257   88.1011   11.6986 C.3     1  UNL1        0.1146
      2 C          63.1401   89.2467   12.0173 C.ar    1  UNL1        0.0045
      3 C          63.4681   90.2606   10.9616 C.ar    1  UNL1        0.0275
      4 C          64.3825   91.4061   11.2803 C.ar    1  UNL1        0.1429
      5 F          64.8136   92.5023   10.3516 F       1  UNL1       -0.2041
      6 C          64.9688   91.5378   12.6546 C.ar    1  UNL1        0.0667
      7 C          64.6407   90.5239   13.7103 C.ar    1  UNL1        0.1461
      8 C          63.7264   89.3784   13.3916 C.ar    1  UNL1        0.0349
      9 O          65.2271   90.6557   15.0847 O.3     1  UNL1       -0.4263
     10 C          66.2687   91.6996   15.3588 C.3     1  UNL1        0.4723
     11 F          65.2448   92.5348   16.0688 F       1  UNL1       -0.1579
     12 F          67.2926   90.8645   14.6488 F       1  UNL1       -0.1579
     13 C          67.3103   92.7436   15.6329 C.3     1  UNL1        0.4202
     14 F          68.4332   92.4513   16.5835 F       1  UNL1       -0.1876
     15 F          67.2290   94.0800   14.9564 F       1  UNL1       -0.1876
     16 C          61.0574   89.0413   11.6708 C.ar    1  UNL1        0.0792
     17 C          60.9998   90.1360   10.6469 C.ar    1  UNL1        0.0175
     18 C          59.8314   91.0763   10.6192 C.ar    1  UNL1        0.0142
     19 C          58.7207   90.9220   11.6154 C.ar    1  UNL1        0.0768
     20 CL         57.5522   91.8623   11.5877 Cl      1  UNL1       -0.0806
     21 C          58.7783   89.8273   12.6393 C.ar    1  UNL1        0.1098
     22 N          59.9466   88.8870   12.6671 N.ar    1  UNL1       -0.2454
     23 N          63.3940   87.1608   11.7263 N.pl3   1  UNL1       -0.3078
     24 H          64.2357   87.4081   11.2795 H       1  UNL1        0.1492
     25 C          62.8816   83.3700   15.4366 C.3     1  UNL1        0.0398
     26 C          63.0419   84.1747   14.1810 C.ar    1  UNL1        0.0318
     27 S          63.1118   85.6489   13.9126 S.2     1  UNL1       -0.0562
     28 C          63.2800   85.8435   12.4348 C.ar    1  UNL1        0.1599
     29 N          63.3141   84.4896   11.7899 N.ar    1  UNL1       -0.2206
     30 C          63.1670   83.4583   12.8691 C.ar    1  UNL1        0.1565
     31 C          63.1483   81.9715   12.6711 C.3     1  UNL1        0.4351
     32 F          63.1295   80.4847   12.4732 F       1  UNL1       -0.1644
     33 F          61.6488   81.9945   12.6408 F       1  UNL1       -0.1644
     34 F          64.6478   81.9486   12.7014 F       1  UNL1       -0.1644
     35 C          61.3113   86.9555   11.3799 C.3     1  UNL1        0.0543
     36 C          60.9598   86.6508    9.9538 C.ar    1  UNL1       -0.0199
     37 C          59.6301   87.0726    9.4026 C.ar    1  UNL1       -0.0042
     38 C          59.2786   86.7679    7.9765 C.ar    1  UNL1       -0.0003
     39 C          60.2568   86.0414    7.1018 C.ar    1  UNL1       -0.0000
     40 C          61.5865   85.6196    7.6530 C.ar    1  UNL1       -0.0003
     41 C          61.9380   85.9243    9.0790 C.ar    1  UNL1       -0.0042
@<TRIPOS>BOND
     1    25    26    1
     2    26    27   ar
     3    27    28   ar
     4    28    23    1
     5    23     1    1
     6     1    35    1
     7    35    36    1
     8    36    37   ar
     9    37    38   ar
    10    38    39   ar
    11    39    40   ar
    12    40    41   ar
    13     1     2    1
    14     2     3   ar
    15     3     4   ar
    16     4     5    1
    17     4     6   ar
    18     6     7   ar
    19     7     9    1
    20     9    10    1
    21    10    11    1
    22    10    12    1
    23    10    13    1
    24    13    14    1
    25    13    15    1
    26     7     8   ar
    27     1    16    1
    28    16    17   ar
    29    17    18   ar
    30    18    19   ar
    31    19    20    1
    32    19    21   ar
    33    21    22   ar
    34    28    29   ar
    35    29    30   ar
    36    30    31    1
    37    31    32    1
    38    31    33    1
    39    31    34    1
    40    30    26   ar
    41    41    36   ar
    42     8     2   ar
    43    22    16   ar
    44    23    24    1
@<TRIPOS>MOLECULE
*****
 41 44 0 0 0
SMALL
GASTEIGER

@<TRIPOS>ATOM
      1 C          62.0870   86.9860   10.8692 C.3     1  UNL1        0.1146
      2 C          62.6097   85.7205   11.4820 C.ar    1  UNL1        0.0045
      3 C          62.5625   84.4369   10.7073 C.ar    1  UNL1        0.0275
      4 C          63.0851   83.1715   11.3201 C.ar    1  UNL1        0.1429
      5 F          63.1152   81.8097   10.6920 F       1  UNL1       -0.2041
      6 C          63.6549   83.1897   12.7075 C.ar    1  UNL1        0.0667
      7 C          63.7021   84.4733   13.4822 C.ar    1  UNL1        0.1461
      8 C          63.1794   85.7387   12.8694 C.ar    1  UNL1        0.0349
      9 O          64.2719   84.4914   14.8697 O.3     1  UNL1       -0.4263
     10 C          63.7477   85.4652   15.8830 C.3     1  UNL1        0.4723
     11 F          64.8719   86.4048   15.5616 F       1  UNL1       -0.1579
     12 F          62.6236   84.5257   16.2045 F       1  UNL1       -0.1579
     13 C          63.2236   86.4390   16.8964 C.3     1  UNL1        0.4202
     14 F          62.4388   85.9450   18.0754 F       1  UNL1       -0.1876
     15 F          63.4843   87.9070   16.7308 F       1  UNL1       -0.1876
     16 C          62.0072   86.3065    9.5343 C.ar    1  UNL1        0.0792
     17 C          60.6856   86.1761    8.8369 C.ar    1  UNL1        0.0175
     18 C          60.6058   85.4966    7.5020 C.ar    1  UNL1        0.0142
     19 C          61.8476   84.9475    6.8645 C.ar    1  UNL1        0.0768
     20 CL         61.7679   84.2680    5.5296 Cl      1  UNL1       -0.0806
     21 C          63.1692   85.0779    7.5619 C.ar    1  UNL1        0.1098
     22 N          63.2490   85.7574    8.8968 N.ar    1  UNL1       -0.2454
     23 N          62.1668   87.6654   12.2040 N.pl3   1  UNL1       -0.3078
     24 H          61.6499   87.3164   12.9657 H       1  UNL1        0.1492
     25 C          64.8498   92.1999   11.4043 C.3     1  UNL1        0.0398
     26 C          64.2279   90.9437   11.9384 C.ar    1  UNL1        0.0318
     27 S          63.3159   89.9171   11.3350 S.2     1  UNL1       -0.0562
     28 C          63.0342   88.8768   12.3784 C.ar    1  UNL1        0.1599
     29 N          63.7722   89.2605   13.6266 N.ar    1  UNL1       -0.2206
     30 C          64.5099   90.5379   13.3548 C.ar    1  UNL1        0.1565
     31 C          65.3774   91.2794   14.3283 C.3     1  UNL1        0.4351
     32 F          66.2449   92.0209   15.3018 F       1  UNL1       -0.1644
     33 F          64.2149   91.4064   15.2674 F       1  UNL1       -0.1644
     34 F          66.5401   91.1524   13.3890 F       1  UNL1       -0.1644
     35 C          61.5643   88.2513   10.2563 C.3     1  UNL1        0.0543
     36 C          60.4323   88.9886   10.9083 C.ar    1  UNL1       -0.0199
     37 C          60.2264   90.4474   10.6266 C.ar    1  UNL1       -0.0042
     38 C          59.0944   91.1846   11.2785 C.ar    1  UNL1       -0.0003
     39 C          58.1683   90.4630   12.2122 C.ar    1  UNL1       -0.0000
     40 C          58.3742   89.0042   12.4938 C.ar    1  UNL1       -0.0003
     41 C          59.5062   88.2670   11.8419 C.ar    1  UNL1       -0.0042
@<TRIPOS>BOND
     1    25    26    1
     2    26    27   ar
     3    27    28   ar
     4    28    23    1
     5    23     1    1
     6     1    35    1
     7    35    36    1
     8    36    37   ar
     9    37    38   ar
    10    38    39   ar
    11    39    40   ar
    12    40    41   ar
    13     1     2    1
    14     2     3   ar
    15     3     4   ar
    16     4     5    1
    17     4     6   ar
    18     6     7   ar
    19     7     9    1
    20     9    10    1
    21    10    11    1
    22    10    12    1
    23    10    13    1
    24    13    14    1
    25    13    15    1
    26     7     8   ar
    27     1    16    1
    28    16    17   ar
    29    17    18   ar
    30    18    19   ar
    31    19    20    1
    32    19    21   ar
    33    21    22   ar
    34    28    29   ar
    35    29    30   ar
    36    30    31    1
    37    31    32    1
    38    31    33    1
    39    31    34    1
    40    30    26   ar
    41    41    36   ar
    42     8     2   ar
    43    22    16   ar
    44    23    24    1
@<TRIPOS>MOLECULE
*****
 41 44 0 0 0
SMALL
GASTEIGER

@<TRIPOS>ATOM
      1 C          58.8438   94.7571   -1.5884 C.3     1  UNL1        0.1146
      2 C          59.4466   93.8433   -0.5629 C.ar    1  UNL1        0.0045
      3 C          60.3486   92.7246   -0.9930 C.ar    1  UNL1        0.0275
      4 C          60.9514   91.8108    0.0325 C.ar    1  UNL1        0.1429
      5 F          61.8680   90.6506   -0.2198 F       1  UNL1       -0.2041
      6 C          60.6523   92.0157    1.4879 C.ar    1  UNL1        0.0667
      7 C          59.7503   93.1345    1.9180 C.ar    1  UNL1        0.1461
      8 C          59.1475   94.0482    0.8926 C.ar    1  UNL1        0.0349
      9 O          59.4512   93.3394    3.3736 O.3     1  UNL1       -0.4263
     10 C          59.1781   92.1580    4.2567 C.3     1  UNL1        0.4723
     11 F          60.6132   92.1526    4.6931 F       1  UNL1       -0.1579
     12 F          57.7431   92.1634    3.8202 F       1  UNL1       -0.1579
     13 C          58.9051   90.9767    5.1397 C.3     1  UNL1        0.4202
     14 F          57.5009   90.6693    5.5682 F       1  UNL1       -0.1876
     15 F          60.0363   90.1028    5.5944 F       1  UNL1       -0.1876
     16 C          57.9984   93.6277   -2.0979 C.ar    1  UNL1        0.0792
     17 C          58.2733   93.0348   -3.4480 C.ar    1  UNL1        0.0175
     18 C          57.4279   91.9053   -3.9574 C.ar    1  UNL1        0.0142
     19 C          56.3075   91.3687   -3.1167 C.ar    1  UNL1        0.0768
     20 CL         55.4621   90.2391   -3.6261 Cl      1  UNL1       -0.0806
     21 C          56.0326   91.9615   -1.7665 C.ar    1  UNL1        0.1098
     22 N          56.8780   93.0910   -1.2571 N.ar    1  UNL1       -0.2454
     23 N          59.6892   95.8866   -1.0790 N.pl3   1  UNL1       -0.3078
     24 H          59.2745   96.6228   -0.5737 H       1  UNL1        0.1492
     25 C          64.9756   96.3276   -0.5711 C.3     1  UNL1        0.0398
     26 C          63.5635   96.1169   -1.0309 C.ar    1  UNL1        0.0318
     27 S          62.2352   96.2394   -0.3450 S.2     1  UNL1       -0.0562
     28 C          61.1664   95.8944   -1.3394 C.ar    1  UNL1        0.1599
     29 N          61.8342   95.5588   -2.6399 N.ar    1  UNL1       -0.2206
     30 C          63.3157   95.6962   -2.4493 C.ar    1  UNL1        0.1565
     31 C          64.3652   95.4553   -3.4936 C.3     1  UNL1        0.4351
     32 F          65.4146   95.2144   -4.5380 F       1  UNL1       -0.1644
     33 F          64.5583   94.0602   -2.9777 F       1  UNL1       -0.1644
     34 F          64.1720   96.8505   -4.0096 F       1  UNL1       -0.1644
     35 C          58.2410   95.6709   -2.6139 C.3     1  UNL1        0.0543
     36 C          56.7974   96.0653   -2.5109 C.ar    1  UNL1       -0.0199
     37 C          56.2186   96.4526   -1.1824 C.ar    1  UNL1       -0.0042
     38 C          54.7751   96.8471   -1.0795 C.ar    1  UNL1       -0.0003
     39 C          53.9103   96.8541   -2.3050 C.ar    1  UNL1       -0.0000
     40 C          54.4890   96.4668   -3.6336 C.ar    1  UNL1       -0.0003
     41 C          55.9326   96.0724   -3.7365 C.ar    1  UNL1       -0.0042
@<TRIPOS>BOND
     1    25    26    1
     2    26    27   ar
     3    27    28   ar
     4    28    23    1
     5    23     1    1
     6     1    35    1
     7    35    36    1
     8    36    37   ar
     9    37    38   ar
    10    38    39   ar
    11    39    40   ar
    12    40    41   ar
    13     1     2    1
    14     2     3   ar
    15     3     4   ar
    16     4     5    1
    17     4     6   ar
    18     6     7   ar
    19     7     9    1
    20     9    10    1
    21    10    11    1
    22    10    12    1
    23    10    13    1
    24    13    14    1
    25    13    15    1
    26     7     8   ar
    27     1    16    1
    28    16    17   ar
    29    17    18   ar
    30    18    19   ar
    31    19    20    1
    32    19    21   ar
    33    21    22   ar
    34    28    29   ar
    35    29    30   ar
    36    30    31    1
    37    31    32    1
    38    31    33    1
    39    31    34    1
    40    30    26   ar
    41    41    36   ar
    42     8     2   ar
    43    22    16   ar
    44    23    24    1
@<TRIPOS>MOLECULE
*****
 41 44 0 0 0
SMALL
GASTEIGER

@<TRIPOS>ATOM
      1 C          58.5232   93.9043   -2.9129 C.3     1  UNL1        0.1146
      2 C          58.9796   94.0860   -1.4956 C.ar    1  UNL1        0.0045
      3 C          58.8262   95.4181   -0.8232 C.ar    1  UNL1        0.0275
      4 C          59.2826   95.5998    0.5941 C.ar    1  UNL1        0.1429
      5 F          59.2053   96.8538    1.4136 F       1  UNL1       -0.2041
      6 C          59.8923   94.4495    1.3390 C.ar    1  UNL1        0.0667
      7 C          60.0457   93.1174    0.6666 C.ar    1  UNL1        0.1461
      8 C          59.5893   92.9357   -0.7507 C.ar    1  UNL1        0.0349
      9 O          60.6555   91.9671    1.4116 O.3     1  UNL1       -0.4263
     10 C          62.0544   92.0741    1.9419 C.3     1  UNL1        0.4723
     11 F          61.5604   91.7276    3.3151 F       1  UNL1       -0.1579
     12 F          62.5485   92.4205    0.5687 F       1  UNL1       -0.1579
     13 C          63.4534   92.1811    2.4722 C.3     1  UNL1        0.4202
     14 F          64.2995   93.3692    2.1220 F       1  UNL1       -0.1876
     15 F          64.0065   91.1000    3.3529 F       1  UNL1       -0.1876
     16 C          57.2210   94.5694   -2.5788 C.ar    1  UNL1        0.0792
     17 C          56.2803   93.9283   -1.6020 C.ar    1  UNL1        0.0175
     18 C          54.9779   94.5934   -1.2679 C.ar    1  UNL1        0.0142
     19 C          54.6163   95.8996   -1.9105 C.ar    1  UNL1        0.0768
     20 CL         53.3140   96.5648   -1.5764 Cl      1  UNL1       -0.0806
     21 C          55.5570   96.5407   -2.8873 C.ar    1  UNL1        0.1098
     22 N          56.8593   95.8757   -3.2214 N.ar    1  UNL1       -0.2454
     23 N          59.8255   93.2393   -3.2470 N.pl3   1  UNL1       -0.3078
     24 H          59.9066   92.2597   -3.1911 H       1  UNL1        0.1492
     25 C          63.1863   96.3561   -5.9655 C.3     1  UNL1        0.0398
     26 C          62.4817   95.4884   -4.9651 C.ar    1  UNL1        0.0318
     27 S          61.1525   94.7933   -4.9702 S.2     1  UNL1       -0.0562
     28 C          61.0044   94.0667   -3.6663 C.ar    1  UNL1        0.1599
     29 N          62.2420   94.3128   -2.8554 N.ar    1  UNL1       -0.2206
     30 C          63.1551   95.1915   -3.6580 C.ar    1  UNL1        0.1565
     31 C          64.5046   95.6863   -3.2290 C.3     1  UNL1        0.4351
     32 F          65.8540   96.1811   -2.7999 F       1  UNL1       -0.1644
     33 F          65.1505   94.5191   -3.9146 F       1  UNL1       -0.1644
     34 F          63.8585   96.8536   -2.5433 F       1  UNL1       -0.1644
     35 C          58.0669   93.7227   -4.3302 C.3     1  UNL1        0.0543
     36 C          57.0649   92.6576   -4.6648 C.ar    1  UNL1       -0.0199
     37 C          56.3550   92.6843   -5.9859 C.ar    1  UNL1       -0.0042
     38 C          55.3531   91.6193   -6.3204 C.ar    1  UNL1       -0.0003
     39 C          55.0612   90.5276   -5.3340 C.ar    1  UNL1       -0.0000
     40 C          55.7712   90.5010   -4.0129 C.ar    1  UNL1       -0.0003
     41 C          56.7730   91.5660   -3.6783 C.ar    1  UNL1       -0.0042
@<TRIPOS>BOND
     1    25    26    1
     2    26    27   ar
     3    27    28   ar
     4    28    23    1
     5    23     1    1
     6     1    35    1
     7    35    36    1
     8    36    37   ar
     9    37    38   ar
    10    38    39   ar
    11    39    40   ar
    12    40    41   ar
    13     1     2    1
    14     2     3   ar
    15     3     4   ar
    16     4     5    1
    17     4     6   ar
    18     6     7   ar
    19     7     9    1
    20     9    10    1
    21    10    11    1
    22    10    12    1
    23    10    13    1
    24    13    14    1
    25    13    15    1
    26     7     8   ar
    27     1    16    1
    28    16    17   ar
    29    17    18   ar
    30    18    19   ar
    31    19    20    1
    32    19    21   ar
    33    21    22   ar
    34    28    29   ar
    35    29    30   ar
    36    30    31    1
    37    31    32    1
    38    31    33    1
    39    31    34    1
    40    30    26   ar
    41    41    36   ar
    42     8     2   ar
    43    22    16   ar
    44    23    24    1
@<TRIPOS>MOLECULE
*****
 41 44 0 0 0
SMALL
GASTEIGER

@<TRIPOS>ATOM
      1 C          62.1948   87.2892   11.0814 C.3     1  UNL1        0.1146
      2 C          62.7781   86.0790   11.7487 C.ar    1  UNL1        0.0045
      3 C          63.7671   86.2415   12.8646 C.ar    1  UNL1        0.0275
      4 C          64.3504   85.0313   13.5319 C.ar    1  UNL1        0.1429
      5 F          65.3446   85.0108   14.6549 F       1  UNL1       -0.2041
      6 C          63.9446   83.6588   13.0833 C.ar    1  UNL1        0.0667
      7 C          62.9555   83.4963   11.9673 C.ar    1  UNL1        0.1461
      8 C          62.3723   84.7065   11.3000 C.ar    1  UNL1        0.0349
      9 O          62.5498   82.1237   11.5187 O.3     1  UNL1       -0.4263
     10 C          62.1527   81.0905   12.5311 C.3     1  UNL1        0.4723
     11 F          61.5539   82.1636   13.3912 F       1  UNL1       -0.1579
     12 F          62.7515   80.0175   11.6709 F       1  UNL1       -0.1579
     13 C          61.7556   80.0574   13.5435 C.3     1  UNL1        0.4202
     14 F          60.4141   80.1371   14.2098 F       1  UNL1       -0.1876
     15 F          62.7001   78.9446   13.8895 F       1  UNL1       -0.1876
     16 C          62.0533   86.5165    9.8036 C.ar    1  UNL1        0.0792
     17 C          63.2574   85.8805    9.1745 C.ar    1  UNL1        0.0175
     18 C          63.1159   85.1077    7.8967 C.ar    1  UNL1        0.0142
     19 C          61.7704   84.9709    7.2480 C.ar    1  UNL1        0.0768
     20 CL         61.6290   84.1981    5.9701 Cl      1  UNL1       -0.0806
     21 C          60.5664   85.6069    7.8770 C.ar    1  UNL1        0.1098
     22 N          60.7078   86.3797    9.1548 N.ar    1  UNL1       -0.2454
     23 N          62.3362   88.0620   12.3592 N.pl3   1  UNL1       -0.3078
     24 H          61.8560   87.7692   13.1672 H       1  UNL1        0.1492
     25 C          65.4828   92.0476   13.9758 C.3     1  UNL1        0.0398
     26 C          64.6372   91.0677   13.2176 C.ar    1  UNL1        0.0318
     27 S          63.8592   89.8535   13.6304 S.2     1  UNL1       -0.0562
     28 C          63.2092   89.2810   12.4058 C.ar    1  UNL1        0.1599
     29 N          63.5855   90.1413   11.2361 N.ar    1  UNL1       -0.2206
     30 C          64.4680   91.2455   11.7378 C.ar    1  UNL1        0.1565
     31 C          65.0748   92.3362   10.9057 C.3     1  UNL1        0.4351
     32 F          65.6817   93.4268   10.0737 F       1  UNL1       -0.1644
     33 F          66.3916   92.1280   11.5932 F       1  UNL1       -0.1644
     34 F          63.7580   92.5444   10.2182 F       1  UNL1       -0.1644
     35 C          61.6115   88.4994   10.4141 C.3     1  UNL1        0.0543
     36 C          60.4232   89.1886   11.0167 C.ar    1  UNL1       -0.0199
     37 C          60.1912   90.6476   10.7573 C.ar    1  UNL1       -0.0042
     38 C          59.0030   91.3368   11.3599 C.ar    1  UNL1       -0.0003
     39 C          58.0468   90.5669   12.2218 C.ar    1  UNL1       -0.0000
     40 C          58.2788   89.1079   12.4812 C.ar    1  UNL1       -0.0003
     41 C          59.4670   88.4187   11.8787 C.ar    1  UNL1       -0.0042
@<TRIPOS>BOND
     1    25    26    1
     2    26    27   ar
     3    27    28   ar
     4    28    23    1
     5    23     1    1
     6     1    35    1
     7    35    36    1
     8    36    37   ar
     9    37    38   ar
    10    38    39   ar
    11    39    40   ar
    12    40    41   ar
    13     1     2    1
    14     2     3   ar
    15     3     4   ar
    16     4     5    1
    17     4     6   ar
    18     6     7   ar
    19     7     9    1
    20     9    10    1
    21    10    11    1
    22    10    12    1
    23    10    13    1
    24    13    14    1
    25    13    15    1
    26     7     8   ar
    27     1    16    1
    28    16    17   ar
    29    17    18   ar
    30    18    19   ar
    31    19    20    1
    32    19    21   ar
    33    21    22   ar
    34    28    29   ar
    35    29    30   ar
    36    30    31    1
    37    31    32    1
    38    31    33    1
    39    31    34    1
    40    30    26   ar
    41    41    36   ar
    42     8     2   ar
    43    22    16   ar
    44    23    24    1
