@<TRIPOS>MOLECULE
*****
 32 37 0 0 0
SMALL
GASTEIGER

@<TRIPOS>ATOM
      1 N          60.5366   92.8314    1.7561 N.pl3   1  UNL1       -0.3075
      2 C          60.1008   94.2642    1.6719 C.3     1  UNL1        0.0908
      3 C          60.3037   95.0365    0.4021 C.3     1  UNL1        0.0237
      4 C          60.9423   94.3760   -0.7836 C.3     1  UNL1        0.0285
      5 C          61.3781   92.9431   -0.6994 C.3     1  UNL1        0.0237
      6 C          61.1753   92.1708    0.5704 C.3     1  UNL1        0.0908
      7 C          61.1451   95.1482   -2.0534 C.3     1  UNL1        0.1117
      8 C          62.4655   95.5643   -2.6310 C.ar    1  UNL1        0.0272
      9 C          63.8755   95.3580   -2.1628 C.ar    1  UNL1        0.1379
     10 F          64.1414   94.6091   -0.8907 F       1  UNL1       -0.2044
     11 C          65.0197   95.9007   -2.9669 C.ar    1  UNL1        0.0294
     12 C          64.7537   96.6495   -4.2390 C.ar    1  UNL1        0.0023
     13 C          63.3437   96.8559   -4.7072 C.ar    1  UNL1        0.0014
     14 C          62.1995   96.3133   -3.9032 C.ar    1  UNL1        0.0173
     15 C          60.7148   96.3600   -4.1118 C.ar    1  UNL1        0.0804
     16 C          59.6330   96.8518   -5.0271 C.ar    1  UNL1        0.1178
     17 N          58.3126   96.4357   -4.4495 N.ar    1  UNL1       -0.2223
     18 C          58.5785   95.6868   -3.1773 C.ar    1  UNL1        0.1788
     19 N          60.0632   95.6400   -2.9686 N.ar    1  UNL1       -0.3069
     20 C          57.3895   91.0624    5.4933 C.3     1  UNL1        0.0311
     21 C          58.7602   91.1747    4.8945 C.ar    1  UNL1       -0.0205
     22 C          58.9630   91.9469    3.6247 C.ar    1  UNL1        0.0103
     23 C          60.3338   92.0592    3.0259 C.ar    1  UNL1        0.0475
     24 C          61.5017   91.3991    3.6970 C.ar    1  UNL1        0.0145
     25 C          61.2989   90.6269    4.9668 C.ar    1  UNL1        0.0011
     26 C          59.9282   90.5146    5.5656 C.ar    1  UNL1       -0.0008
     27 C          59.7254   89.7424    6.8354 C.ar    1  UNL1        0.0393
     28 C          58.9994   88.4364    6.9666 C.ar    1  UNL1        0.1216
     29 N          59.0382   88.0274    8.4093 N.ar    1  UNL1       -0.1676
     30 N          59.7883   89.0806    9.1696 N.ar    1  UNL1       -0.2473
     31 C          60.0651   89.0749   10.6439 C.3     1  UNL1        0.1538
     32 C          60.2130   90.1406    8.1969 C.ar    1  UNL1        0.0967
@<TRIPOS>BOND
     1    20    21    1
     2    21    22   ar
     3    22    23   ar
     4    23     1    1
     5     1     2    1
     6     2     3    1
     7     3     4    1
     8     4     7    1
     9     7     8    1
    10     8     9   ar
    11     9    10    1
    12     9    11   ar
    13    11    12   ar
    14    12    13   ar
    15    13    14   ar
    16    14    15    1
    17    15    16   ar
    18    16    17   ar
    19    17    18   ar
    20    18    19   ar
    21     4     5    1
    22     5     6    1
    23    23    24   ar
    24    24    25   ar
    25    25    26   ar
    26    26    27    1
    27    27    28   ar
    28    28    29   ar
    29    29    30   ar
    30    30    31    1
    31    30    32   ar
    32    26    21   ar
    33    32    27   ar
    34     6     1    1
    35    19     7    1
    36    14     8   ar
    37    19    15   ar
@<TRIPOS>MOLECULE
*****
 32 37 0 0 0
SMALL
GASTEIGER

@<TRIPOS>ATOM
      1 N          63.8871   87.2224   13.7652 N.pl3   1  UNL1       -0.3075
      2 C          63.4331   88.1647   12.6901 C.3     1  UNL1        0.0908
      3 C          63.9726   89.5635   12.6418 C.3     1  UNL1        0.0237
      4 C          64.9662   90.0200   13.6686 C.3     1  UNL1        0.0285
      5 C          65.4203   89.0777   14.7438 C.3     1  UNL1        0.0237
      6 C          64.8807   87.6789   14.7921 C.3     1  UNL1        0.0908
      7 C          65.5057   91.4188   13.6204 C.3     1  UNL1        0.1117
      8 C          65.4205   92.3568   12.4529 C.ar    1  UNL1        0.0272
      9 C          64.8220   92.2061   11.0858 C.ar    1  UNL1        0.1379
     10 F          64.1552   90.9201   10.6967 F       1  UNL1       -0.2044
     11 C          64.8902   93.3415   10.1078 C.ar    1  UNL1        0.0294
     12 C          65.5570   94.6274   10.4971 C.ar    1  UNL1        0.0023
     13 C          66.1556   94.7782   11.8642 C.ar    1  UNL1        0.0014
     14 C          66.0874   93.6429   12.8421 C.ar    1  UNL1        0.0173
     15 C          66.5846   93.4997   14.2501 C.ar    1  UNL1        0.0804
     16 C          67.3040   94.2060   15.3607 C.ar    1  UNL1        0.1178
     17 N          67.3891   93.2680   16.5281 N.ar    1  UNL1       -0.2223
     18 C          66.7224   91.9819   16.1389 C.ar    1  UNL1        0.1788
     19 N          66.2251   92.1251   14.7310 N.ar    1  UNL1       -0.3069
     20 C          62.5964   82.8110   11.3417 C.3     1  UNL1        0.0311
     21 C          62.7022   83.6180   12.6016 C.ar    1  UNL1       -0.0205
     22 C          63.2417   85.0167   12.5534 C.ar    1  UNL1        0.0103
     23 C          63.3476   85.8237   13.8135 C.ar    1  UNL1        0.0475
     24 C          62.9139   85.2318   15.1217 C.ar    1  UNL1        0.0145
     25 C          62.3744   83.8330   15.1700 C.ar    1  UNL1        0.0011
     26 C          62.2685   83.0261   13.9100 C.ar    1  UNL1       -0.0008
     27 C          61.7290   81.6273   13.9583 C.ar    1  UNL1        0.0393
     28 C          62.5195   80.3698   13.7495 C.ar    1  UNL1        0.1216
     29 N          61.5833   79.2058   13.8860 N.ar    1  UNL1       -0.1676
     30 N          60.2142   79.7440   14.1791 N.ar    1  UNL1       -0.2473
     31 C          58.9729   78.9287   14.3905 C.3     1  UNL1        0.1538
     32 C          60.3042   81.2407   14.2238 C.ar    1  UNL1        0.0967
@<TRIPOS>BOND
     1    20    21    1
     2    21    22   ar
     3    22    23   ar
     4    23     1    1
     5     1     2    1
     6     2     3    1
     7     3     4    1
     8     4     7    1
     9     7     8    1
    10     8     9   ar
    11     9    10    1
    12     9    11   ar
    13    11    12   ar
    14    12    13   ar
    15    13    14   ar
    16    14    15    1
    17    15    16   ar
    18    16    17   ar
    19    17    18   ar
    20    18    19   ar
    21     4     5    1
    22     5     6    1
    23    23    24   ar
    24    24    25   ar
    25    25    26   ar
    26    26    27    1
    27    27    28   ar
    28    28    29   ar
    29    29    30   ar
    30    30    31    1
    31    30    32   ar
    32    26    21   ar
    33    32    27   ar
    34     6     1    1
    35    19     7    1
    36    14     8   ar
    37    19    15   ar
@<TRIPOS>MOLECULE
*****
 32 37 0 0 0
SMALL
GASTEIGER

@<TRIPOS>ATOM
      1 N          60.6997   92.8302    1.7613 N.pl3   1  UNL1       -0.3075
      2 C          61.0221   94.2938    1.8234 C.3     1  UNL1        0.0908
      3 C          61.2478   95.0665    0.5576 C.3     1  UNL1        0.0237
      4 C          61.1511   94.3755   -0.7702 C.3     1  UNL1        0.0285
      5 C          60.8287   92.9118   -0.8323 C.3     1  UNL1        0.0237
      6 C          60.6030   92.1392    0.4334 C.3     1  UNL1        0.0908
      7 C          61.3767   95.1481   -2.0360 C.3     1  UNL1        0.1117
      8 C          60.3196   95.5631   -3.0160 C.ar    1  UNL1        0.0272
      9 C          58.8343   95.3552   -3.0382 C.ar    1  UNL1        0.1379
     10 F          58.1652   94.6054   -1.9246 F       1  UNL1       -0.2044
     11 C          58.0180   95.8970   -4.1741 C.ar    1  UNL1        0.0294
     12 C          58.6871   96.6467   -5.2876 C.ar    1  UNL1        0.0023
     13 C          60.1724   96.8547   -5.2655 C.ar    1  UNL1        0.0014
     14 C          60.9887   96.3129   -4.1296 C.ar    1  UNL1        0.0173
     15 C          62.4593   96.3613   -3.8379 C.ar    1  UNL1        0.0804
     16 C          63.7816   96.8546   -4.3459 C.ar    1  UNL1        0.1178
     17 N          64.8387   96.4396   -3.3659 N.ar    1  UNL1       -0.2223
     18 C          64.1696   95.6898   -2.2522 C.ar    1  UNL1        0.1788
     19 N          62.6991   95.6414   -2.5440 N.ar    1  UNL1       -0.3069
     20 C          57.4981   91.1211    5.4800 C.3     1  UNL1        0.0311
     21 C          58.8732   91.2031    4.8864 C.ar    1  UNL1       -0.0205
     22 C          59.0989   91.9757    3.6206 C.ar    1  UNL1        0.0103
     23 C          60.4740   92.0576    3.0270 C.ar    1  UNL1        0.0475
     24 C          61.6234   91.3669    3.6992 C.ar    1  UNL1        0.0145
     25 C          61.3977   90.5943    4.9649 C.ar    1  UNL1        0.0011
     26 C          60.0227   90.5124    5.5585 C.ar    1  UNL1       -0.0008
     27 C          59.7970   89.7397    6.8243 C.ar    1  UNL1        0.0393
     28 C          59.0779   88.4286    6.9405 C.ar    1  UNL1        0.1216
     29 N          59.0873   88.0211    8.3840 N.ar    1  UNL1       -0.1676
     30 N          59.8122   89.0806    9.1600 N.ar    1  UNL1       -0.2473
     31 C          60.0557   89.0782   10.6402 C.3     1  UNL1        0.1538
     32 C          60.2509   90.1428    8.1960 C.ar    1  UNL1        0.0967
@<TRIPOS>BOND
     1    20    21    1
     2    21    22   ar
     3    22    23   ar
     4    23     1    1
     5     1     2    1
     6     2     3    1
     7     3     4    1
     8     4     7    1
     9     7     8    1
    10     8     9   ar
    11     9    10    1
    12     9    11   ar
    13    11    12   ar
    14    12    13   ar
    15    13    14   ar
    16    14    15    1
    17    15    16   ar
    18    16    17   ar
    19    17    18   ar
    20    18    19   ar
    21     4     5    1
    22     5     6    1
    23    23    24   ar
    24    24    25   ar
    25    25    26   ar
    26    26    27    1
    27    27    28   ar
    28    28    29   ar
    29    29    30   ar
    30    30    31    1
    31    30    32   ar
    32    26    21   ar
    33    32    27   ar
    34     6     1    1
    35    19     7    1
    36    14     8   ar
    37    19    15   ar
@<TRIPOS>MOLECULE
*****
 32 37 0 0 0
SMALL
GASTEIGER

@<TRIPOS>ATOM
      1 N          60.8161   87.5159    8.7391 N.pl3   1  UNL1       -0.3075
      2 C          60.8795   88.9943    8.9850 C.3     1  UNL1        0.0908
      3 C          60.2887   89.9465    7.9879 C.3     1  UNL1        0.0237
      4 C          59.6345   89.4204    6.7449 C.3     1  UNL1        0.0285
      5 C          59.5711   87.9420    6.4989 C.3     1  UNL1        0.0237
      6 C          60.1619   86.9898    7.4960 C.3     1  UNL1        0.0908
      7 C          59.0438   90.3727    5.7478 C.3     1  UNL1        0.1117
      8 C          59.8090   91.1968    4.7550 C.ar    1  UNL1        0.0272
      9 C          61.2767   91.3184    4.4708 C.ar    1  UNL1        0.1379
     10 F          62.2634   90.5138    5.2637 F       1  UNL1       -0.2044
     11 C          61.7577   92.2448    3.3934 C.ar    1  UNL1        0.0294
     12 C          60.7709   93.0494    2.6005 C.ar    1  UNL1        0.0023
     13 C          59.3032   92.9277    2.8848 C.ar    1  UNL1        0.0014
     14 C          58.8221   92.0014    3.9621 C.ar    1  UNL1        0.0173
     15 C          57.4471   91.6746    4.4646 C.ar    1  UNL1        0.0804
     16 C          55.9875   91.9700    4.2851 C.ar    1  UNL1        0.1178
     17 N          55.2224   91.1459    5.2778 N.ar    1  UNL1       -0.2223
     18 C          56.2091   90.3412    6.0708 C.ar    1  UNL1        0.1788
     19 N          57.5841   90.6680    5.5683 N.ar    1  UNL1       -0.3069
     20 C          63.8794   83.4605    9.8208 C.3     1  UNL1        0.0311
     21 C          62.9385   84.5360   10.2770 C.ar    1  UNL1       -0.0205
     22 C          62.3478   85.4882    9.2799 C.ar    1  UNL1        0.0103
     23 C          61.4069   86.5637    9.7362 C.ar    1  UNL1        0.0475
     24 C          61.0568   86.6869   11.1895 C.ar    1  UNL1        0.0145
     25 C          61.6476   85.7347   12.1866 C.ar    1  UNL1        0.0011
     26 C          62.5884   84.6592   11.7304 C.ar    1  UNL1       -0.0008
     27 C          63.1792   83.7070   12.7275 C.ar    1  UNL1        0.0393
     28 C          64.1287   84.0642   13.8324 C.ar    1  UNL1        0.1216
     29 N          64.4605   82.8084   14.5825 N.ar    1  UNL1       -0.1676
     30 N          63.7161   81.6750   13.9412 N.ar    1  UNL1       -0.2473
     31 C          63.7566   80.2384   14.3709 C.3     1  UNL1        0.1538
     32 C          62.9242   82.2303   12.7947 C.ar    1  UNL1        0.0967
@<TRIPOS>BOND
     1    20    21    1
     2    21    22   ar
     3    22    23   ar
     4    23     1    1
     5     1     2    1
     6     2     3    1
     7     3     4    1
     8     4     7    1
     9     7     8    1
    10     8     9   ar
    11     9    10    1
    12     9    11   ar
    13    11    12   ar
    14    12    13   ar
    15    13    14   ar
    16    14    15    1
    17    15    16   ar
    18    16    17   ar
    19    17    18   ar
    20    18    19   ar
    21     4     5    1
    22     5     6    1
    23    23    24   ar
    24    24    25   ar
    25    25    26   ar
    26    26    27    1
    27    27    28   ar
    28    28    29   ar
    29    29    30   ar
    30    30    31    1
    31    30    32   ar
    32    26    21   ar
    33    32    27   ar
    34     6     1    1
    35    19     7    1
    36    14     8   ar
    37    19    15   ar
