@<TRIPOS>MOLECULE
*****
 31 34 0 0 0
SMALL
GASTEIGER

@<TRIPOS>ATOM
      1 C          64.9878   91.2437   13.6525 C.3     1  UNL1        0.1296
      2 C          65.9825   92.2966   14.0423 C.2     1  UNL1        0.0239
      3 C          66.1685   93.2149   12.8709 C.2     1  UNL1       -0.0350
      4 O          67.0751   94.4089   12.8219 O.co2   1  UNL1       -0.8701
      5 C          65.2888   92.7295   11.7571 C.2     1  UNL1        0.2375
      6 O          65.1612   93.3528   10.3988 O.2     1  UNL1       -0.2709
      7 N          64.5591   91.5112   12.2402 N.am    1  UNL1       -0.2499
      8 C          63.6439   90.4118   15.7146 C.ar    1  UNL1        0.1366
      9 C          63.1625   89.2886   16.5844 C.ar    1  UNL1        0.0366
     10 C          63.5434   87.8741   16.2620 C.ar    1  UNL1        0.0031
     11 C          64.4058   87.5828   15.0697 C.ar    1  UNL1       -0.0001
     12 C          64.8873   88.7059   14.1999 C.ar    1  UNL1        0.0007
     13 C          64.5063   90.1204   14.5223 C.ar    1  UNL1        0.0343
     14 C          63.8267   92.4958   17.2552 C.3     1  UNL1        0.2525
     15 O          63.2630   91.8264   16.0370 O.3     1  UNL1       -0.4717
     16 C          63.5736   90.7025   11.4497 C.ar    1  UNL1        0.0546
     17 C          63.1733   89.3366   11.9230 C.ar    1  UNL1        0.0149
     18 C          62.1879   88.5279   11.1325 C.ar    1  UNL1        0.0013
     19 C          61.6027   89.0850    9.8687 C.ar    1  UNL1        0.0006
     20 C          62.0031   90.4510    9.3953 C.ar    1  UNL1        0.0013
     21 C          62.9885   91.2596   10.1859 C.ar    1  UNL1        0.0149
     22 C          60.6173   88.2762    9.0783 C.ar    1  UNL1        0.0070
     23 C          60.4097   86.7942    9.1804 C.ar    1  UNL1        0.0075
     24 C          59.3306   86.4095    8.2122 C.ar    1  UNL1        0.0355
     25 S          58.8712   87.6539    7.5116 S.2     1  UNL1       -0.0859
     26 C          59.6666   88.8075    8.0469 C.ar    1  UNL1        0.0354
     27 C          66.6704   92.4112   15.3703 C.2     1  UNL1        0.1695
     28 O          66.2624   92.7510   16.6116 O.2     1  UNL1       -0.2917
     29 C          68.1353   92.1099   15.4847 C.3     1  UNL1        0.0617
     30 C          68.7793   92.0201   16.8364 C.3     1  UNL1        0.0081
     31 C          68.9564   91.8983   14.2473 C.3     1  UNL1        0.0081
@<TRIPOS>UNITY_ATOM_ATTR
4 1
charge -1
@<TRIPOS>BOND
     1    14    15    1
     2    15     8    1
     3     8     9   ar
     4     9    10   ar
     5    10    11   ar
     6    11    12   ar
     7    12    13   ar
     8     1    13    1
     9     1     2    1
    10     2    27    1
    11    27    28    2
    12    27    29    1
    13    29    30    1
    14    29    31    1
    15     2     3    2
    16     3     4    1
    17     3     5    1
    18     5     6    2
    19     5     7   am
    20     7    16    1
    21    16    17   ar
    22    17    18   ar
    23    18    19   ar
    24    19    22    1
    25    22    23   ar
    26    23    24   ar
    27    24    25   ar
    28    25    26   ar
    29    19    20   ar
    30    20    21   ar
    31    13     8   ar
    32     7     1    1
    33    21    16   ar
    34    26    22   ar
@<TRIPOS>MOLECULE
*****
 31 34 0 0 0
SMALL
GASTEIGER

@<TRIPOS>ATOM
      1 C          62.7091   87.5862   11.8900 C.3     1  UNL1        0.1296
      2 C          63.1062   88.8802   12.5363 C.2     1  UNL1        0.0239
      3 C          63.9939   88.5623   13.7030 C.2     1  UNL1       -0.0350
      4 O          64.6201   89.5598   14.6319 O.co2   1  UNL1       -0.8701
      5 C          64.1453   87.0718   13.7777 C.2     1  UNL1        0.2375
      6 O          64.9495   86.3171   14.7943 O.2     1  UNL1       -0.2709
      7 N          63.3513   86.4686   12.6571 N.am    1  UNL1       -0.2499
      8 C          60.3595   87.7390   10.7916 C.ar    1  UNL1        0.1366
      9 C          59.4754   87.5890    9.5892 C.ar    1  UNL1        0.0366
     10 C          60.0567   87.1361    8.2827 C.ar    1  UNL1        0.0031
     11 C          61.5221   86.8332    8.1786 C.ar    1  UNL1       -0.0001
     12 C          62.4062   86.9832    9.3810 C.ar    1  UNL1        0.0007
     13 C          61.8250   87.4361   10.6875 C.ar    1  UNL1        0.0343
     14 C          58.7644   89.2971   12.1250 C.3     1  UNL1        0.2525
     15 O          59.7783   88.1920   12.0981 O.3     1  UNL1       -0.4717
     16 C          63.2221   85.0047   12.3566 C.ar    1  UNL1        0.0546
     17 C          62.6809   84.0702   13.3976 C.ar    1  UNL1        0.0149
     18 C          62.5518   82.6063   13.0970 C.ar    1  UNL1        0.0013
     19 C          62.9637   82.0769   11.7553 C.ar    1  UNL1        0.0006
     20 C          63.5049   83.0114   10.7142 C.ar    1  UNL1        0.0013
     21 C          63.6340   84.4753   11.0149 C.ar    1  UNL1        0.0149
     22 C          62.8345   80.6130   11.4548 C.ar    1  UNL1        0.0070
     23 C          62.5520   79.5296   12.4530 C.ar    1  UNL1        0.0075
     24 C          62.5080   78.2226   11.7184 C.ar    1  UNL1        0.0355
     25 S          62.7634   78.4981   10.2661 S.2     1  UNL1       -0.0859
     26 C          62.9652   79.9756   10.1033 C.ar    1  UNL1        0.0354
     27 C          62.6891   90.2514   12.0938 C.2     1  UNL1        0.1695
     28 O          61.5141   90.9162   12.0825 O.2     1  UNL1       -0.2917
     29 C          63.7031   91.1945   11.5176 C.3     1  UNL1        0.0617
     30 C          63.6574   91.5461   10.0601 C.3     1  UNL1        0.0081
     31 C          64.7630   91.7861   12.3989 C.3     1  UNL1        0.0081
@<TRIPOS>UNITY_ATOM_ATTR
4 1
charge -1
@<TRIPOS>BOND
     1    14    15    1
     2    15     8    1
     3     8     9   ar
     4     9    10   ar
     5    10    11   ar
     6    11    12   ar
     7    12    13   ar
     8     1    13    1
     9     1     2    1
    10     2    27    1
    11    27    28    2
    12    27    29    1
    13    29    30    1
    14    29    31    1
    15     2     3    2
    16     3     4    1
    17     3     5    1
    18     5     6    2
    19     5     7   am
    20     7    16    1
    21    16    17   ar
    22    17    18   ar
    23    18    19   ar
    24    19    22    1
    25    22    23   ar
    26    23    24   ar
    27    24    25   ar
    28    25    26   ar
    29    19    20   ar
    30    20    21   ar
    31    13     8   ar
    32     7     1    1
    33    21    16   ar
    34    26    22   ar
@<TRIPOS>MOLECULE
*****
 31 34 0 0 0
SMALL
GASTEIGER

@<TRIPOS>ATOM
      1 C          62.8875   84.8537   12.8085 C.3     1  UNL1        0.1296
      2 C          62.5559   83.5626   13.4964 C.2     1  UNL1        0.0239
      3 C          62.7988   83.7443   14.9654 C.2     1  UNL1       -0.0350
      4 O          62.5957   82.7051   16.0278 O.co2   1  UNL1       -0.8701
      5 C          63.2806   85.1478   15.1855 C.2     1  UNL1        0.2375
      6 O          63.6437   85.7583   16.5065 O.2     1  UNL1       -0.2709
      7 N          63.3353   85.8334   13.8524 N.am    1  UNL1       -0.2499
      8 C          61.7576   86.0747   10.8129 C.ar    1  UNL1        0.1366
      9 C          61.6586   86.3397    9.3398 C.ar    1  UNL1        0.0366
     10 C          62.5907   85.6486    8.3893 C.ar    1  UNL1        0.0031
     11 C          63.6217   84.6926    8.9118 C.ar    1  UNL1       -0.0001
     12 C          63.7207   84.4276   10.3848 C.ar    1  UNL1        0.0007
     13 C          62.7886   85.1187   11.3354 C.ar    1  UNL1        0.0343
     14 C          60.0529   87.9703   11.3138 C.3     1  UNL1        0.2525
     15 O          60.8255   86.7658   11.7635 O.3     1  UNL1       -0.4717
     16 C          63.7629   87.2499   13.6065 C.ar    1  UNL1        0.0546
     17 C          64.6212   87.9595   14.6113 C.ar    1  UNL1        0.0149
     18 C          65.0488   89.3761   14.3654 C.ar    1  UNL1        0.0013
     19 C          64.6180   90.0832   13.1146 C.ar    1  UNL1        0.0006
     20 C          63.7596   89.3736   12.1097 C.ar    1  UNL1        0.0013
     21 C          63.3321   87.9570   12.3557 C.ar    1  UNL1        0.0149
     22 C          65.0456   91.4997   12.8687 C.ar    1  UNL1        0.0070
     23 C          64.8016   92.2896   11.6171 C.ar    1  UNL1        0.0075
     24 C          65.3974   93.6532   11.8060 C.ar    1  UNL1        0.0355
     25 S          66.0096   93.7060   13.1745 S.2     1  UNL1       -0.0859
     26 C          65.7921   92.3751   13.8311 C.ar    1  UNL1        0.0354
     27 C          62.0672   82.3098   12.8319 C.2     1  UNL1        0.1695
     28 O          61.7466   81.9860   11.5611 O.2     1  UNL1       -0.2917
     29 C          61.8430   81.0686   13.6438 C.3     1  UNL1        0.0617
     30 C          60.4722   80.7487   14.1618 C.3     1  UNL1        0.0081
     31 C          62.9897   80.1473   13.9376 C.3     1  UNL1        0.0081
@<TRIPOS>UNITY_ATOM_ATTR
4 1
charge -1
@<TRIPOS>BOND
     1    14    15    1
     2    15     8    1
     3     8     9   ar
     4     9    10   ar
     5    10    11   ar
     6    11    12   ar
     7    12    13   ar
     8     1    13    1
     9     1     2    1
    10     2    27    1
    11    27    28    2
    12    27    29    1
    13    29    30    1
    14    29    31    1
    15     2     3    2
    16     3     4    1
    17     3     5    1
    18     5     6    2
    19     5     7   am
    20     7    16    1
    21    16    17   ar
    22    17    18   ar
    23    18    19   ar
    24    19    22    1
    25    22    23   ar
    26    23    24   ar
    27    24    25   ar
    28    25    26   ar
    29    19    20   ar
    30    20    21   ar
    31    13     8   ar
    32     7     1    1
    33    21    16   ar
    34    26    22   ar
@<TRIPOS>MOLECULE
*****
 31 34 0 0 0
SMALL
GASTEIGER

@<TRIPOS>ATOM
      1 C          62.8288   84.9177   12.8931 C.3     1  UNL1        0.1296
      2 C          62.5216   83.6025   13.5456 C.2     1  UNL1        0.0239
      3 C          62.8728   83.7132   14.9997 C.2     1  UNL1       -0.0350
      4 O          62.7256   82.6303   16.0272 O.co2   1  UNL1       -0.8701
      5 C          63.3971   85.0969   15.2458 C.2     1  UNL1        0.2375
      6 O          63.8663   85.6406   16.5627 O.2     1  UNL1       -0.2709
      7 N          63.3699   85.8413   13.9439 N.am    1  UNL1       -0.2499
      8 C          63.4944   84.6072   10.4009 C.ar    1  UNL1        0.1366
      9 C          63.2955   84.9403    8.9520 C.ar    1  UNL1        0.0366
     10 C          62.2320   85.9171    8.5463 C.ar    1  UNL1        0.0031
     11 C          61.3674   86.5608    9.5894 C.ar    1  UNL1       -0.0001
     12 C          61.5663   86.2277   11.0383 C.ar    1  UNL1        0.0007
     13 C          62.6298   85.2509   11.4441 C.ar    1  UNL1        0.0343
     14 C          64.5147   82.2200   10.2977 C.3     1  UNL1        0.2525
     15 O          64.5580   83.6303   10.8068 O.3     1  UNL1       -0.4717
     16 C          63.8071   87.2601   13.7302 C.ar    1  UNL1        0.0546
     17 C          64.7004   87.9288   14.7327 C.ar    1  UNL1        0.0149
     18 C          65.1375   89.3477   14.5190 C.ar    1  UNL1        0.0013
     19 C          64.6814   90.0980   13.3029 C.ar    1  UNL1        0.0006
     20 C          63.7880   89.4294   12.3004 C.ar    1  UNL1        0.0013
     21 C          63.3509   88.0105   12.5141 C.ar    1  UNL1        0.0149
     22 C          65.1185   91.5169   13.0893 C.ar    1  UNL1        0.0070
     23 C          64.9069   92.3267   11.8445 C.ar    1  UNL1        0.0075
     24 C          65.5016   93.6853   12.0688 C.ar    1  UNL1        0.0355
     25 S          66.0809   93.7152   13.4522 S.2     1  UNL1       -0.0859
     26 C          65.8440   92.3749   14.0828 C.ar    1  UNL1        0.0354
     27 C          61.9615   82.3895   12.8638 C.2     1  UNL1        0.1695
     28 O          61.5377   82.1311   11.6082 O.2     1  UNL1       -0.2917
     29 C          61.7797   81.1141   13.6320 C.3     1  UNL1        0.0617
     30 C          60.4330   80.7596   14.1895 C.3     1  UNL1        0.0081
     31 C          62.9447   80.1929   13.8427 C.3     1  UNL1        0.0081
@<TRIPOS>UNITY_ATOM_ATTR
4 1
charge -1
@<TRIPOS>BOND
     1    14    15    1
     2    15     8    1
     3     8     9   ar
     4     9    10   ar
     5    10    11   ar
     6    11    12   ar
     7    12    13   ar
     8     1    13    1
     9     1     2    1
    10     2    27    1
    11    27    28    2
    12    27    29    1
    13    29    30    1
    14    29    31    1
    15     2     3    2
    16     3     4    1
    17     3     5    1
    18     5     6    2
    19     5     7   am
    20     7    16    1
    21    16    17   ar
    22    17    18   ar
    23    18    19   ar
    24    19    22    1
    25    22    23   ar
    26    23    24   ar
    27    24    25   ar
    28    25    26   ar
    29    19    20   ar
    30    20    21   ar
    31    13     8   ar
    32     7     1    1
    33    21    16   ar
    34    26    22   ar
