@<TRIPOS>MOLECULE
*****
 30 32 0 0 0
SMALL
GASTEIGER

@<TRIPOS>ATOM
      1 C          61.5288   88.0287    9.7933 C.ar    1  UNL1       -0.0181
      2 C          60.1123   88.4998    9.9413 C.ar    1  UNL1       -0.0040
      3 C          59.8247   89.8155   10.6018 C.ar    1  UNL1       -0.0006
      4 C          60.9534   90.6600   11.1143 C.ar    1  UNL1       -0.0042
      5 C          62.3698   90.1890   10.9663 C.ar    1  UNL1       -0.0204
      6 C          62.6575   88.8732   10.3058 C.ar    1  UNL1       -0.0081
      7 C          63.4985   91.0335   11.4788 C.3     1  UNL1        0.0519
      8 C          64.3383   91.8249   10.5204 C.3     1  UNL1        0.0119
      9 C          65.4670   92.6694   11.0329 C.3     1  UNL1        0.0591
     10 C          65.7560   92.7227   12.5038 C.3     1  UNL1        0.1420
     11 O          66.8848   93.5673   13.0162 O.3     1  UNL1       -0.3818
     12 C          64.9163   91.9313   13.4623 C.3     1  UNL1        0.1642
     13 O          65.2053   91.9846   14.9332 O.3     1  UNL1       -0.3795
     14 C          63.7875   91.0868   12.9498 C.3     1  UNL1        0.1435
     15 O          62.9478   90.2954   13.9082 O.3     1  UNL1       -0.3816
     16 H          66.9342   93.4895   13.9819 H       1  UNL1        0.2104
     17 H          65.9605   92.5719   15.0932 H       1  UNL1        0.2105
     18 H          62.2677   89.8088   13.4166 H       1  UNL1        0.2105
     19 C          66.3068   93.4608   10.0744 C.3     1  UNL1        0.1396
     20 O          67.7041   93.8555   10.4507 O.3     1  UNL1       -0.3819
     21 H          67.6751   94.4785   11.1936 H       1  UNL1        0.2104
     22 C          61.8164   86.7130    9.1328 C.3     1  UNL1        0.0526
     23 C          63.5946   83.3381   11.5199 C.ar    1  UNL1       -0.0222
     24 C          62.7007   84.3401   12.1885 C.ar    1  UNL1       -0.0046
     25 C          62.1080   85.4650   11.3928 C.ar    1  UNL1       -0.0043
     26 C          62.4091   85.5881    9.9285 C.ar    1  UNL1       -0.0178
     27 C          63.3030   84.5861    9.2600 C.ar    1  UNL1       -0.0043
     28 C          63.8957   83.4612   10.0557 C.ar    1  UNL1       -0.0046
     29 C          63.2909   81.2119   12.9817 C.3     1  UNL1        0.0050
     30 C          64.1873   82.2132   12.3156 C.3     1  UNL1        0.0264
@<TRIPOS>BOND
     1    29    30    1
     2    30    23    1
     3    23    24   ar
     4    24    25   ar
     5    25    26   ar
     6    26    22    1
     7    22     1    1
     8     1     2   ar
     9     2     3   ar
    10     3     4   ar
    11     4     5   ar
    12     7     5    1
    13     7     8    1
    14     8     9    1
    15     9    19    1
    16    19    20    1
    17     9    10    1
    18    10    11    1
    19    10    12    1
    20    12    13    1
    21    12    14    1
    22    14    15    1
    23     5     6   ar
    24    26    27   ar
    25    27    28   ar
    26    28    23   ar
    27     6     1   ar
    28    14     7    1
    29    20    21    1
    30    11    16    1
    31    13    17    1
    32    15    18    1
@<TRIPOS>MOLECULE
*****
 30 32 0 0 0
SMALL
GASTEIGER

@<TRIPOS>ATOM
      1 C          61.4514   87.7118   10.2623 C.ar    1  UNL1       -0.0181
      2 C          60.0409   88.0510   10.6436 C.ar    1  UNL1       -0.0040
      3 C          59.7493   89.3224   11.3842 C.ar    1  UNL1       -0.0006
      4 C          60.8681   90.2547   11.7434 C.ar    1  UNL1       -0.0042
      5 C          62.2786   89.9155   11.3621 C.ar    1  UNL1       -0.0204
      6 C          62.5703   88.6440   10.6215 C.ar    1  UNL1       -0.0081
      7 C          63.3975   90.8477   11.7213 C.3     1  UNL1        0.0519
      8 C          64.0036   90.7987   13.0924 C.3     1  UNL1        0.0119
      9 C          65.1225   91.7310   13.4517 C.3     1  UNL1        0.0591
     10 C          65.6353   92.7122   12.4397 C.3     1  UNL1        0.1420
     11 O          66.7542   93.6445   12.7989 O.3     1  UNL1       -0.3818
     12 C          65.0292   92.7612   11.0684 C.3     1  UNL1        0.1642
     13 O          65.5420   93.7425   10.0564 O.3     1  UNL1       -0.3795
     14 C          63.9103   91.8290   10.7092 C.3     1  UNL1        0.1435
     15 O          63.3042   91.8780    9.3380 O.3     1  UNL1       -0.3816
     16 H          66.9625   94.2081   12.0374 H       1  UNL1        0.2104
     17 H          66.2597   94.2649   10.4474 H       1  UNL1        0.2105
     18 H          62.5992   91.2150    9.2722 H       1  UNL1        0.2105
     19 C          65.7286   91.6819   14.8229 C.3     1  UNL1        0.1396
     20 O          65.7543   92.9154   15.6761 O.3     1  UNL1       -0.3819
     21 H          66.3314   93.5793   15.2672 H       1  UNL1        0.2104
     22 C          61.7430   86.4404    9.5217 C.3     1  UNL1        0.0526
     23 C          63.7707   83.0219   11.6318 C.ar    1  UNL1       -0.0222
     24 C          63.9816   83.2264   10.1609 C.ar    1  UNL1       -0.0046
     25 C          63.3057   84.3659    9.4575 C.ar    1  UNL1       -0.0043
     26 C          62.4189   85.3009   10.2251 C.ar    1  UNL1       -0.0178
     27 C          62.2080   85.0964   11.6960 C.ar    1  UNL1       -0.0043
     28 C          62.8839   83.9569   12.3994 C.ar    1  UNL1       -0.0046
     29 C          63.7565   81.1868   13.4709 C.3     1  UNL1        0.0050
     30 C          64.4466   81.8824   12.3351 C.3     1  UNL1        0.0264
@<TRIPOS>BOND
     1    29    30    1
     2    30    23    1
     3    23    24   ar
     4    24    25   ar
     5    25    26   ar
     6    26    22    1
     7    22     1    1
     8     1     2   ar
     9     2     3   ar
    10     3     4   ar
    11     4     5   ar
    12     7     5    1
    13     7     8    1
    14     8     9    1
    15     9    19    1
    16    19    20    1
    17     9    10    1
    18    10    11    1
    19    10    12    1
    20    12    13    1
    21    12    14    1
    22    14    15    1
    23     5     6   ar
    24    26    27   ar
    25    27    28   ar
    26    28    23   ar
    27     6     1   ar
    28    14     7    1
    29    20    21    1
    30    11    16    1
    31    13    17    1
    32    15    18    1
@<TRIPOS>MOLECULE
*****
 30 32 0 0 0
SMALL
GASTEIGER

@<TRIPOS>ATOM
      1 C          61.6938   89.1709    9.9268 C.ar    1  UNL1       -0.0181
      2 C          60.5033   88.9882    9.0327 C.ar    1  UNL1       -0.0040
      3 C          59.9529   87.6145    8.7879 C.ar    1  UNL1       -0.0006
      4 C          60.5930   86.4234    9.4372 C.ar    1  UNL1       -0.0042
      5 C          61.7834   86.6060   10.3313 C.ar    1  UNL1       -0.0204
      6 C          62.3338   87.9798   10.5762 C.ar    1  UNL1       -0.0081
      7 C          62.4234   85.4149   10.9807 C.3     1  UNL1        0.0519
      8 C          62.2521   85.1806   12.4523 C.3     1  UNL1        0.0119
      9 C          62.8922   83.9895   13.1016 C.3     1  UNL1        0.0591
     10 C          63.7035   83.0327   12.2793 C.3     1  UNL1        0.1420
     11 O          64.3436   81.8416   12.9287 O.3     1  UNL1       -0.3818
     12 C          63.8749   83.2670   10.8076 C.3     1  UNL1        0.1642
     13 O          64.6863   82.3102    9.9853 O.3     1  UNL1       -0.3795
     14 C          63.2348   84.4581   10.1583 C.3     1  UNL1        0.1435
     15 O          63.4062   84.6924    8.6867 O.3     1  UNL1       -0.3816
     16 H          64.8275   81.3306   12.2611 H       1  UNL1        0.2104
     17 H          65.0261   81.6023   10.5547 H       1  UNL1        0.2105
     18 H          62.9322   85.4990    8.4304 H       1  UNL1        0.2105
     19 C          62.7208   83.7552   14.5733 C.3     1  UNL1        0.1396
     20 O          62.4859   82.3665   15.0893 O.3     1  UNL1       -0.3819
     21 H          61.6273   82.0449   14.7727 H       1  UNL1        0.2104
     22 C          62.2442   90.5446   10.1716 C.3     1  UNL1        0.0526
     23 C          64.9754   91.2836   13.6708 C.ar    1  UNL1       -0.0222
     24 C          63.8267   90.3283   13.8046 C.ar    1  UNL1       -0.0046
     25 C          62.9163   90.0820   12.6382 C.ar    1  UNL1       -0.0043
     26 C          63.1546   90.7909   11.3380 C.ar    1  UNL1       -0.0178
     27 C          64.3032   91.7463   11.2042 C.ar    1  UNL1       -0.0043
     28 C          65.2136   91.9926   12.3706 C.ar    1  UNL1       -0.0046
     29 C          67.3664   91.6391   14.6230 C.3     1  UNL1        0.0050
     30 C          65.8858   91.5300   14.8372 C.3     1  UNL1        0.0264
@<TRIPOS>BOND
     1    29    30    1
     2    30    23    1
     3    23    24   ar
     4    24    25   ar
     5    25    26   ar
     6    26    22    1
     7    22     1    1
     8     1     2   ar
     9     2     3   ar
    10     3     4   ar
    11     4     5   ar
    12     7     5    1
    13     7     8    1
    14     8     9    1
    15     9    19    1
    16    19    20    1
    17     9    10    1
    18    10    11    1
    19    10    12    1
    20    12    13    1
    21    12    14    1
    22    14    15    1
    23     5     6   ar
    24    26    27   ar
    25    27    28   ar
    26    28    23   ar
    27     6     1   ar
    28    14     7    1
    29    20    21    1
    30    11    16    1
    31    13    17    1
    32    15    18    1
@<TRIPOS>MOLECULE
*****
 30 32 0 0 0
SMALL
GASTEIGER

@<TRIPOS>ATOM
      1 C          63.7533   86.1199   15.3937 C.ar    1  UNL1       -0.0181
      2 C          63.1947   86.3097   16.7729 C.ar    1  UNL1       -0.0040
      3 C          63.0132   87.6926   17.3247 C.ar    1  UNL1       -0.0006
      4 C          63.3903   88.8857   16.4975 C.ar    1  UNL1       -0.0042
      5 C          63.9489   88.6959   15.1184 C.ar    1  UNL1       -0.0204
      6 C          64.1304   87.3130   14.5665 C.ar    1  UNL1       -0.0081
      7 C          64.3259   89.8890   14.2912 C.3     1  UNL1        0.0519
      8 C          65.3515   90.8592   14.7980 C.3     1  UNL1        0.0119
      9 C          65.7286   92.0523   13.9708 C.3     1  UNL1        0.0591
     10 C          65.0801   92.2753   12.6368 C.3     1  UNL1        0.1420
     11 O          65.4572   93.4684   11.8096 O.3     1  UNL1       -0.3818
     12 C          64.0544   91.3051   12.1299 C.3     1  UNL1        0.1642
     13 O          63.4059   91.5280   10.7959 O.3     1  UNL1       -0.3795
     14 C          63.6774   90.1120   12.9571 C.3     1  UNL1        0.1435
     15 O          62.6518   89.1418   12.4503 O.3     1  UNL1       -0.3816
     16 H          64.9492   93.4625   10.9832 H       1  UNL1        0.2104
     17 H          63.7599   92.3376   10.3955 H       1  UNL1        0.2105
     18 H          62.5263   88.4342   13.1019 H       1  UNL1        0.2105
     19 C          66.7543   93.0225   14.4777 C.3     1  UNL1        0.1396
     20 O          66.5613   94.4952   14.2688 O.3     1  UNL1       -0.3819
     21 H          66.6031   94.6955   13.3206 H       1  UNL1        0.2104
     22 C          63.9348   84.7370   14.8419 C.3     1  UNL1        0.0526
     23 C          63.4764   83.9982   10.4267 C.ar    1  UNL1       -0.0222
     24 C          62.6180   85.0217   11.1089 C.ar    1  UNL1       -0.0046
     25 C          62.7708   85.2679   12.5807 C.ar    1  UNL1       -0.0043
     26 C          63.7820   84.4907   13.3701 C.ar    1  UNL1       -0.0178
     27 C          64.6404   83.4672   12.6879 C.ar    1  UNL1       -0.0043
     28 C          64.4876   83.2210   11.2161 C.ar    1  UNL1       -0.0046
     29 C          62.9667   84.8842    8.0381 C.3     1  UNL1        0.0050
     30 C          63.3236   83.7519    8.9549 C.3     1  UNL1        0.0264
@<TRIPOS>BOND
     1    29    30    1
     2    30    23    1
     3    23    24   ar
     4    24    25   ar
     5    25    26   ar
     6    26    22    1
     7    22     1    1
     8     1     2   ar
     9     2     3   ar
    10     3     4   ar
    11     4     5   ar
    12     7     5    1
    13     7     8    1
    14     8     9    1
    15     9    19    1
    16    19    20    1
    17     9    10    1
    18    10    11    1
    19    10    12    1
    20    12    13    1
    21    12    14    1
    22    14    15    1
    23     5     6   ar
    24    26    27   ar
    25    27    28   ar
    26    28    23   ar
    27     6     1   ar
    28    14     7    1
    29    20    21    1
    30    11    16    1
    31    13    17    1
    32    15    18    1
@<TRIPOS>MOLECULE
*****
 30 32 0 0 0
SMALL
GASTEIGER

@<TRIPOS>ATOM
      1 C          64.1622   86.6240   15.7362 C.ar    1  UNL1       -0.0181
      2 C          63.3515   87.0188   16.9350 C.ar    1  UNL1       -0.0040
      3 C          62.7839   88.4037   17.0335 C.ar    1  UNL1       -0.0006
      4 C          63.0268   89.3938   15.9332 C.ar    1  UNL1       -0.0042
      5 C          63.8374   88.9991   14.7345 C.ar    1  UNL1       -0.0204
      6 C          64.4051   87.6141   14.6360 C.ar    1  UNL1       -0.0081
      7 C          64.0803   89.9893   13.6342 C.3     1  UNL1        0.0519
      8 C          65.1675   91.0133   13.7734 C.3     1  UNL1        0.0119
      9 C          65.4104   92.0035   12.6731 C.3     1  UNL1        0.0591
     10 C          64.5662   91.9696   11.4337 C.3     1  UNL1        0.1420
     11 O          64.8091   92.9597   10.3335 O.3     1  UNL1       -0.3818
     12 C          63.4790   90.9455   11.2945 C.3     1  UNL1        0.1642
     13 O          62.6348   90.9116   10.0552 O.3     1  UNL1       -0.3795
     14 C          63.2361   89.9553   12.3948 C.3     1  UNL1        0.1435
     15 O          62.1489   88.9313   12.2557 O.3     1  UNL1       -0.3816
     16 H          64.1816   92.8007    9.6110 H       1  UNL1        0.2104
     17 H          62.9210   91.6133    9.4497 H       1  UNL1        0.2105
     18 H          62.1263   88.3739   13.0493 H       1  UNL1        0.2105
     19 C          66.4976   93.0276   12.8123 C.3     1  UNL1        0.1396
     20 O          67.2677   93.4727   11.6045 O.3     1  UNL1       -0.3819
     21 H          67.7878   92.7296   11.2607 H       1  UNL1        0.2104
     22 C          64.7299   85.2391   15.6377 C.3     1  UNL1        0.0526
     23 C          63.0157   82.3095   12.6832 C.ar    1  UNL1       -0.0222
     24 C          64.1684   83.1846   12.2890 C.ar    1  UNL1       -0.0046
     25 C          64.7398   84.1612   13.2739 C.ar    1  UNL1       -0.0043
     26 C          64.1585   84.2626   14.6529 C.ar    1  UNL1       -0.0178
     27 C          63.0058   83.3874   15.0471 C.ar    1  UNL1       -0.0043
     28 C          62.4344   82.4109   14.0622 C.ar    1  UNL1       -0.0046
     29 C          63.2196   80.9693   10.4669 C.3     1  UNL1        0.0050
     30 C          62.4443   81.3330   11.6984 C.3     1  UNL1        0.0264
@<TRIPOS>BOND
     1    29    30    1
     2    30    23    1
     3    23    24   ar
     4    24    25   ar
     5    25    26   ar
     6    26    22    1
     7    22     1    1
     8     1     2   ar
     9     2     3   ar
    10     3     4   ar
    11     4     5   ar
    12     7     5    1
    13     7     8    1
    14     8     9    1
    15     9    19    1
    16    19    20    1
    17     9    10    1
    18    10    11    1
    19    10    12    1
    20    12    13    1
    21    12    14    1
    22    14    15    1
    23     5     6   ar
    24    26    27   ar
    25    27    28   ar
    26    28    23   ar
    27     6     1   ar
    28    14     7    1
    29    20    21    1
    30    11    16    1
    31    13    17    1
    32    15    18    1
@<TRIPOS>MOLECULE
*****
 30 32 0 0 0
SMALL
GASTEIGER

@<TRIPOS>ATOM
      1 C          62.4140   89.4685   11.0161 C.ar    1  UNL1       -0.0181
      2 C          61.7330   89.2404    9.6992 C.ar    1  UNL1       -0.0040
      3 C          61.4237   87.8442    9.2467 C.ar    1  UNL1       -0.0006
      4 C          61.7953   86.6760   10.1111 C.ar    1  UNL1       -0.0042
      5 C          62.4763   86.9040   11.4280 C.ar    1  UNL1       -0.0204
      6 C          62.7857   88.3003   11.8805 C.ar    1  UNL1       -0.0081
      7 C          62.8479   85.7358   12.2924 C.3     1  UNL1        0.0519
      8 C          62.4739   84.3446   11.8745 C.3     1  UNL1        0.0119
      9 C          62.8456   83.1764   12.7389 C.3     1  UNL1        0.0591
     10 C          63.5912   83.3994   14.0212 C.3     1  UNL1        0.1420
     11 O          63.9628   82.2312   14.8856 O.3     1  UNL1       -0.3818
     12 C          63.9652   84.7907   14.4391 C.3     1  UNL1        0.1642
     13 O          64.7108   85.0137   15.7214 O.3     1  UNL1       -0.3795
     14 C          63.5936   85.9589   13.5747 C.3     1  UNL1        0.1435
     15 O          63.9676   87.3501   13.9926 O.3     1  UNL1       -0.3816
     16 H          64.4370   82.5476   15.6704 H       1  UNL1        0.2104
     17 H          64.8707   84.1608   16.1550 H       1  UNL1        0.2105
     18 H          63.6549   87.9827   13.3270 H       1  UNL1        0.2105
     19 C          62.4715   81.7852   12.3210 C.3     1  UNL1        0.1396
     20 O          63.2383   80.6107   12.8526 O.3     1  UNL1       -0.3819
     21 H          64.1486   80.6411   12.5191 H       1  UNL1        0.2104
     22 C          62.7234   90.8648   11.4686 C.3     1  UNL1        0.0526
     23 C          66.3558   91.6554   14.0045 C.ar    1  UNL1       -0.0222
     24 C          65.2268   90.8307   14.5478 C.ar    1  UNL1       -0.0046
     25 C          64.0160   90.5671   13.7025 C.ar    1  UNL1       -0.0043
     26 C          63.9342   91.1283   12.3139 C.ar    1  UNL1       -0.0178
     27 C          65.0631   91.9530   11.7705 C.ar    1  UNL1       -0.0043
     28 C          66.2739   92.2166   12.6158 C.ar    1  UNL1       -0.0046
     29 C          67.4425   92.7300   16.1054 C.3     1  UNL1        0.0050
     30 C          67.5666   91.9189   14.8498 C.3     1  UNL1        0.0264
@<TRIPOS>BOND
     1    29    30    1
     2    30    23    1
     3    23    24   ar
     4    24    25   ar
     5    25    26   ar
     6    26    22    1
     7    22     1    1
     8     1     2   ar
     9     2     3   ar
    10     3     4   ar
    11     4     5   ar
    12     7     5    1
    13     7     8    1
    14     8     9    1
    15     9    19    1
    16    19    20    1
    17     9    10    1
    18    10    11    1
    19    10    12    1
    20    12    13    1
    21    12    14    1
    22    14    15    1
    23     5     6   ar
    24    26    27   ar
    25    27    28   ar
    26    28    23   ar
    27     6     1   ar
    28    14     7    1
    29    20    21    1
    30    11    16    1
    31    13    17    1
    32    15    18    1
@<TRIPOS>MOLECULE
*****
 30 32 0 0 0
SMALL
GASTEIGER

@<TRIPOS>ATOM
      1 C          62.7350   88.4395   11.9027 C.ar    1  UNL1       -0.0181
      2 C          62.8598   87.0422   12.4339 C.ar    1  UNL1       -0.0040
      3 C          63.7094   86.7714   13.6400 C.ar    1  UNL1       -0.0006
      4 C          64.4343   87.8979   14.3151 C.ar    1  UNL1       -0.0042
      5 C          64.3095   89.2951   13.7839 C.ar    1  UNL1       -0.0204
      6 C          63.4598   89.5659   12.5777 C.ar    1  UNL1       -0.0081
      7 C          65.0343   90.4216   14.4589 C.3     1  UNL1        0.0519
      8 C          66.3968   90.8293   13.9822 C.3     1  UNL1        0.0119
      9 C          67.1217   91.9558   14.6572 C.3     1  UNL1        0.0591
     10 C          66.4840   92.6746   15.8090 C.3     1  UNL1        0.1420
     11 O          67.2089   93.8011   16.4840 O.3     1  UNL1       -0.3818
     12 C          65.1214   92.2669   16.2858 C.3     1  UNL1        0.1642
     13 O          64.4838   92.9858   17.4376 O.3     1  UNL1       -0.3795
     14 C          64.3966   91.1405   15.6108 C.3     1  UNL1        0.1435
     15 O          63.0341   90.7328   16.0875 O.3     1  UNL1       -0.3816
     16 H          66.6610   94.1534   17.2027 H       1  UNL1        0.2104
     17 H          65.0811   93.6807   17.7556 H       1  UNL1        0.2105
     18 H          62.7097   89.9954   15.5473 H       1  UNL1        0.2105
     19 C          68.4843   92.3634   14.1804 C.3     1  UNL1        0.1396
     20 O          69.1290   91.6336   13.0395 O.3     1  UNL1       -0.3819
     21 H          69.3167   90.7197   13.3051 H       1  UNL1        0.2104
     22 C          61.8854   88.7102   10.6966 C.3     1  UNL1        0.0526
     23 C          61.3198   85.5144    7.5794 C.ar    1  UNL1       -0.0222
     24 C          62.6548   85.6894    8.2404 C.ar    1  UNL1       -0.0046
     25 C          62.8434   86.7547    9.2795 C.ar    1  UNL1       -0.0043
     26 C          61.6968   87.6449    9.6575 C.ar    1  UNL1       -0.0178
     27 C          60.3618   87.4699    8.9965 C.ar    1  UNL1       -0.0043
     28 C          60.1733   86.4046    7.9575 C.ar    1  UNL1       -0.0046
     29 C          62.1966   84.2069    5.5126 C.3     1  UNL1        0.0050
     30 C          61.1312   84.4491    6.5404 C.3     1  UNL1        0.0264
@<TRIPOS>BOND
     1    29    30    1
     2    30    23    1
     3    23    24   ar
     4    24    25   ar
     5    25    26   ar
     6    26    22    1
     7    22     1    1
     8     1     2   ar
     9     2     3   ar
    10     3     4   ar
    11     4     5   ar
    12     7     5    1
    13     7     8    1
    14     8     9    1
    15     9    19    1
    16    19    20    1
    17     9    10    1
    18    10    11    1
    19    10    12    1
    20    12    13    1
    21    12    14    1
    22    14    15    1
    23     5     6   ar
    24    26    27   ar
    25    27    28   ar
    26    28    23   ar
    27     6     1   ar
    28    14     7    1
    29    20    21    1
    30    11    16    1
    31    13    17    1
    32    15    18    1
@<TRIPOS>MOLECULE
*****
 30 32 0 0 0
SMALL
GASTEIGER

@<TRIPOS>ATOM
      1 C          62.0357   88.4176   11.1000 C.ar    1  UNL1       -0.0181
      2 C          61.7260   88.2763    9.6390 C.ar    1  UNL1       -0.0040
      3 C          61.8118   86.9311    8.9810 C.ar    1  UNL1       -0.0006
      4 C          62.2073   85.7273    9.7837 C.ar    1  UNL1       -0.0042
      5 C          62.5170   85.8686   11.2445 C.ar    1  UNL1       -0.0204
      6 C          62.4312   87.2138   11.9027 C.ar    1  UNL1       -0.0081
      7 C          62.9125   84.6648   12.0473 C.3     1  UNL1        0.0519
      8 C          62.6399   83.2879   11.5182 C.3     1  UNL1        0.0119
      9 C          63.0353   82.0841   12.3210 C.3     1  UNL1        0.0591
     10 C          63.7034   82.2571   13.6528 C.3     1  UNL1        0.1420
     11 O          64.0989   81.0533   14.4555 O.3     1  UNL1       -0.3818
     12 C          63.9761   83.6340   14.1819 C.3     1  UNL1        0.1642
     13 O          64.6442   83.8070   15.5136 O.3     1  UNL1       -0.3795
     14 C          63.5806   84.8378   13.3791 C.3     1  UNL1        0.1435
     15 O          63.8532   86.2147   13.9081 O.3     1  UNL1       -0.3816
     16 H          64.5153   81.3394   15.2836 H       1  UNL1        0.2104
     17 H          64.8314   82.9359   15.8970 H       1  UNL1        0.2105
     18 H          63.5376   86.8743   13.2708 H       1  UNL1        0.2105
     19 C          62.7627   80.7072   11.7919 C.3     1  UNL1        0.1396
     20 O          62.3766   79.6049   12.7330 O.3     1  UNL1       -0.3819
     21 H          63.1211   79.4077   13.3228 H       1  UNL1        0.2104
     22 C          61.9499   89.7628   11.7580 C.3     1  UNL1        0.0526
     23 C          65.3804   92.6556   11.4207 C.ar    1  UNL1       -0.0222
     24 C          64.4977   92.3975   10.2358 C.ar    1  UNL1       -0.0046
     25 C          63.3542   91.4332   10.3482 C.ar    1  UNL1       -0.0043
     26 C          63.0934   90.7271   11.6456 C.ar    1  UNL1       -0.0178
     27 C          63.9761   90.9852   12.8305 C.ar    1  UNL1       -0.0043
     28 C          65.1196   91.9495   12.7181 C.ar    1  UNL1       -0.0046
     29 C          67.3411   93.6709   10.0515 C.3     1  UNL1        0.0050
     30 C          66.5239   93.6199   11.3083 C.3     1  UNL1        0.0264
@<TRIPOS>BOND
     1    29    30    1
     2    30    23    1
     3    23    24   ar
     4    24    25   ar
     5    25    26   ar
     6    26    22    1
     7    22     1    1
     8     1     2   ar
     9     2     3   ar
    10     3     4   ar
    11     4     5   ar
    12     7     5    1
    13     7     8    1
    14     8     9    1
    15     9    19    1
    16    19    20    1
    17     9    10    1
    18    10    11    1
    19    10    12    1
    20    12    13    1
    21    12    14    1
    22    14    15    1
    23     5     6   ar
    24    26    27   ar
    25    27    28   ar
    26    28    23   ar
    27     6     1   ar
    28    14     7    1
    29    20    21    1
    30    11    16    1
    31    13    17    1
    32    15    18    1
@<TRIPOS>MOLECULE
*****
 30 32 0 0 0
SMALL
GASTEIGER

@<TRIPOS>ATOM
      1 C          64.8781   91.7357   15.3609 C.ar    1  UNL1       -0.0181
      2 C          65.7873   92.1724   16.4712 C.ar    1  UNL1       -0.0040
      3 C          67.0209   92.9674   16.1616 C.ar    1  UNL1       -0.0006
      4 C          67.3455   93.3257   14.7416 C.ar    1  UNL1       -0.0042
      5 C          66.4364   92.8891   13.6313 C.ar    1  UNL1       -0.0204
      6 C          65.2026   92.0940   13.9410 C.ar    1  UNL1       -0.0081
      7 C          66.7610   93.2474   12.2114 C.3     1  UNL1        0.0519
      8 C          67.3715   92.2240   11.3004 C.3     1  UNL1        0.0119
      9 C          67.6961   92.5824    9.8805 C.3     1  UNL1        0.0591
     10 C          67.4102   93.9641    9.3715 C.3     1  UNL1        0.1420
     11 O          67.7347   94.3224    7.9516 O.3     1  UNL1       -0.3818
     12 C          66.7996   94.9875   10.2825 C.3     1  UNL1        0.1642
     13 O          66.5136   96.3692    9.7735 O.3     1  UNL1       -0.3795
     14 C          66.4750   94.6292   11.7024 C.3     1  UNL1        0.1435
     15 O          65.8645   95.6525   12.6134 O.3     1  UNL1       -0.3816
     16 H          67.4891   95.2463    7.7870 H       1  UNL1        0.2104
     17 H          66.7811   96.4329    8.8433 H       1  UNL1        0.2105
     18 H          65.7193   95.2606   13.4888 H       1  UNL1        0.2105
     19 C          68.3067   91.5589    8.9695 C.3     1  UNL1        0.1396
     20 O          69.1589   91.9957    7.8150 O.3     1  UNL1       -0.3819
     21 H          68.6130   92.4781    7.1745 H       1  UNL1        0.2104
     22 C          63.6444   90.9407   15.6706 C.3     1  UNL1        0.0526
     23 C          63.8230   86.4448   15.7389 C.ar    1  UNL1       -0.0222
     24 C          64.4227   87.2018   14.5913 C.ar    1  UNL1       -0.0046
     25 C          64.3632   88.7005   14.5685 C.ar    1  UNL1       -0.0043
     26 C          63.7039   89.4420   15.6933 C.ar    1  UNL1       -0.0178
     27 C          63.1042   88.6850   16.8410 C.ar    1  UNL1       -0.0043
     28 C          63.1638   87.1863   16.8638 C.ar    1  UNL1       -0.0046
     29 C          64.5133   84.2032   14.6215 C.3     1  UNL1        0.0050
     30 C          63.8826   84.9461   15.7617 C.3     1  UNL1        0.0264
@<TRIPOS>BOND
     1    29    30    1
     2    30    23    1
     3    23    24   ar
     4    24    25   ar
     5    25    26   ar
     6    26    22    1
     7    22     1    1
     8     1     2   ar
     9     2     3   ar
    10     3     4   ar
    11     4     5   ar
    12     7     5    1
    13     7     8    1
    14     8     9    1
    15     9    19    1
    16    19    20    1
    17     9    10    1
    18    10    11    1
    19    10    12    1
    20    12    13    1
    21    12    14    1
    22    14    15    1
    23     5     6   ar
    24    26    27   ar
    25    27    28   ar
    26    28    23   ar
    27     6     1   ar
    28    14     7    1
    29    20    21    1
    30    11    16    1
    31    13    17    1
    32    15    18    1
