@<TRIPOS>MOLECULE
*****
 32 36 0 0 0
SMALL
GASTEIGER

@<TRIPOS>ATOM
      1 C          64.1480   88.0169   14.5592 C.ar    1  UNL1        0.0989
      2 C          63.7851   87.0806   13.4449 C.ar    1  UNL1        0.1006
      3 N          63.3206   85.6888   13.7562 N.ar    1  UNL1       -0.2861
      4 C          62.8977   84.5511   12.8747 C.ar    1  UNL1        0.0846
      5 C          62.5346   83.3925   13.7554 C.ar    1  UNL1        0.1180
      6 N          62.7331   83.8140   15.1812 N.ar    1  UNL1       -0.2233
      7 C          63.2189   85.2332   15.1817 C.ar    1  UNL1        0.1672
      8 C          63.5817   86.1695   16.2960 C.ar    1  UNL1        0.1361
      9 N          64.0462   87.5613   15.9847 N.ar    1  UNL1       -0.2392
     10 C          65.5416   92.1926   13.6255 C.ar    1  UNL1        0.0536
     11 C          64.3321   91.6339   12.9363 C.ar    1  UNL1        0.0046
     12 C          63.8676   90.2420   13.2476 C.ar    1  UNL1        0.0017
     13 C          64.6125   89.4088   14.2480 C.ar    1  UNL1        0.0191
     14 C          65.8220   89.9675   14.9372 C.ar    1  UNL1        0.0017
     15 C          66.2866   91.3594   14.6259 C.ar    1  UNL1        0.0046
     16 C          67.1196   95.1764    7.6375 C.3     1  UNL1        0.0897
     17 N          66.8413   94.7784    9.0567 N.3     1  UNL1       -0.2686
     18 C          66.3768   93.3866    9.3679 C.3     1  UNL1        0.0939
     19 C          66.0984   92.9885   10.7872 C.3     1  UNL1        0.1110
     20 N          66.2845   93.9824   11.8951 N.am    1  UNL1       -0.2732
     21 C          66.0061   93.5845   13.3143 C.2     1  UNL1        0.2491
     22 O          66.1922   94.5784   14.4222 O.2     1  UNL1       -0.2699
     23 C          66.7490   95.3744   11.5838 C.3     1  UNL1        0.1110
     24 C          67.0274   95.7723   10.1646 C.3     1  UNL1        0.0939
     25 C          62.8468   84.5690   11.3757 C.ar    1  UNL1        0.0177
     26 C          61.9569   85.5465   10.6670 C.ar    1  UNL1        0.0022
     27 C          61.9060   85.5645    9.1680 C.ar    1  UNL1        0.0103
     28 C          62.7451   84.6048    8.3776 C.ar    1  UNL1        0.0684
     29 C          63.6352   83.6272    9.0862 C.ar    1  UNL1        0.0103
     30 C          63.6860   83.6093   10.5852 C.ar    1  UNL1        0.0022
     31 C          62.6943   84.6227    6.8785 C.1     1  UNL1        0.1004
     32 N          62.6434   84.6407    5.3796 N.1     1  UNL1       -0.1908
@<TRIPOS>BOND
     1    16    17    1
     2    17    18    1
     3    18    19    1
     4    19    20    1
     5    20    21   am
     6    21    22    2
     7    21    10    1
     8    10    11   ar
     9    11    12   ar
    10    12    13   ar
    11    13     1    1
    12     1     2   ar
    13     2     3   ar
    14     3     4   ar
    15     4    25    1
    16    25    26   ar
    17    26    27   ar
    18    27    28   ar
    19    28    31    1
    20    31    32    3
    21    28    29   ar
    22    29    30   ar
    23     4     5   ar
    24     5     6   ar
    25     6     7   ar
    26     7     8   ar
    27     8     9   ar
    28    13    14   ar
    29    14    15   ar
    30    20    23    1
    31    23    24    1
    32    24    17    1
    33    15    10   ar
    34     9     1   ar
    35     7     3   ar
    36    30    25   ar
@<TRIPOS>MOLECULE
*****
 32 36 0 0 0
SMALL
GASTEIGER

@<TRIPOS>ATOM
      1 C          61.6890   86.4971   10.1006 C.ar    1  UNL1        0.0989
      2 C          62.2755   87.0567   11.3626 C.ar    1  UNL1        0.1006
      3 N          63.0146   86.1579   12.3090 N.ar    1  UNL1       -0.2861
      4 C          63.6954   86.4223   13.6192 C.ar    1  UNL1        0.0846
      5 C          64.2687   85.1272   14.1134 C.ar    1  UNL1        0.1180
      6 N          63.9422   84.0624   13.1086 N.ar    1  UNL1       -0.2233
      7 C          63.1671   84.6994   11.9934 C.ar    1  UNL1        0.1672
      8 C          62.5806   84.1397   10.7314 C.ar    1  UNL1        0.1361
      9 N          61.8415   85.0386    9.7850 N.ar    1  UNL1       -0.2392
     10 C          59.4717   89.1936    7.2611 C.ar    1  UNL1        0.0536
     11 C          60.2364   89.7808    8.4102 C.ar    1  UNL1        0.0046
     12 C          60.9755   88.8820    9.3566 C.ar    1  UNL1        0.0017
     13 C          60.9499   87.3959    9.1540 C.ar    1  UNL1        0.0191
     14 C          60.1852   86.8087    8.0050 C.ar    1  UNL1        0.0017
     15 C          59.4460   87.7076    7.0584 C.ar    1  UNL1        0.0046
     16 C          61.7399   93.1636    2.1285 C.3     1  UNL1        0.0897
     17 N          60.9881   92.3958    3.1750 N.3     1  UNL1       -0.2686
     18 C          61.7272   91.4970    4.1215 C.3     1  UNL1        0.0939
     19 C          60.9753   90.7291    5.1680 C.3     1  UNL1        0.1110
     20 N          59.4844   90.8602    5.2681 N.am    1  UNL1       -0.2732
     21 C          58.7326   90.0925    6.3146 C.2     1  UNL1        0.2491
     22 O          57.2417   90.2235    6.4147 O.2     1  UNL1       -0.2699
     23 C          58.7453   91.7591    4.3216 C.3     1  UNL1        0.1110
     24 C          59.4972   92.5269    3.2751 C.3     1  UNL1        0.0939
     25 C          63.7869   87.7489   14.3133 C.ar    1  UNL1        0.0177
     26 C          64.2375   88.9624   13.5556 C.ar    1  UNL1        0.0022
     27 C          64.3289   90.2889   14.2497 C.ar    1  UNL1        0.0103
     28 C          63.9697   90.4020   15.7017 C.ar    1  UNL1        0.0684
     29 C          63.5191   89.1885   16.4595 C.ar    1  UNL1        0.0103
     30 C          63.4277   87.8619   15.7654 C.ar    1  UNL1        0.0022
     31 C          64.0612   91.7286   16.3958 C.1     1  UNL1        0.1004
     32 N          64.1527   93.0551   17.0899 N.1     1  UNL1       -0.1908
@<TRIPOS>BOND
     1    16    17    1
     2    17    18    1
     3    18    19    1
     4    19    20    1
     5    20    21   am
     6    21    22    2
     7    21    10    1
     8    10    11   ar
     9    11    12   ar
    10    12    13   ar
    11    13     1    1
    12     1     2   ar
    13     2     3   ar
    14     3     4   ar
    15     4    25    1
    16    25    26   ar
    17    26    27   ar
    18    27    28   ar
    19    28    31    1
    20    31    32    3
    21    28    29   ar
    22    29    30   ar
    23     4     5   ar
    24     5     6   ar
    25     6     7   ar
    26     7     8   ar
    27     8     9   ar
    28    13    14   ar
    29    14    15   ar
    30    20    23    1
    31    23    24    1
    32    24    17    1
    33    15    10   ar
    34     9     1   ar
    35     7     3   ar
    36    30    25   ar
@<TRIPOS>MOLECULE
*****
 32 36 0 0 0
SMALL
GASTEIGER

@<TRIPOS>ATOM
      1 C          61.8803   89.5645   10.4478 C.ar    1  UNL1        0.0989
      2 C          61.2431   89.8392    9.1180 C.ar    1  UNL1        0.1006
      3 N          60.2473   88.8722    8.5495 N.ar    1  UNL1       -0.2861
      4 C          59.4614   88.8757    7.2718 C.ar    1  UNL1        0.0846
      5 C          58.6170   87.6363    7.2435 C.ar    1  UNL1        0.1180
      6 N          58.8811   86.8667    8.5037 N.ar    1  UNL1       -0.2233
      7 C          59.8886   87.6306    9.3108 C.ar    1  UNL1        0.1672
      8 C          60.5258   87.3559   10.6407 C.ar    1  UNL1        0.1361
      9 N          61.5216   88.3228   11.2092 N.ar    1  UNL1       -0.2392
     10 C          64.8680   92.4654   12.1534 C.ar    1  UNL1        0.0536
     11 C          64.5996   92.4459   10.6777 C.ar    1  UNL1        0.0046
     12 C          63.6038   91.4789   10.1092 C.ar    1  UNL1        0.0017
     13 C          62.8762   90.5315   11.0164 C.ar    1  UNL1        0.0191
     14 C          63.1445   90.5510   12.4920 C.ar    1  UNL1        0.0017
     15 C          64.1404   91.5180   13.0606 C.ar    1  UNL1        0.0046
     16 C          69.4756   91.7326   17.2013 C.3     1  UNL1        0.0897
     17 N          68.5727   92.1575   16.0815 N.3     1  UNL1       -0.2686
     18 C          67.5768   91.1906   15.5130 C.3     1  UNL1        0.0939
     19 C          66.6738   91.6155   14.3931 C.3     1  UNL1        0.1110
     20 N          66.7667   93.0074   13.8417 N.am    1  UNL1       -0.2732
     21 C          65.8638   93.4324   12.7219 C.2     1  UNL1        0.2491
     22 O          65.9567   94.8243   12.1706 O.2     1  UNL1       -0.2699
     23 C          67.7627   93.9744   14.4103 C.3     1  UNL1        0.1110
     24 C          68.6656   93.5494   15.5301 C.3     1  UNL1        0.0939
     25 C          59.5112   89.9331    6.2091 C.ar    1  UNL1        0.0177
     26 C          60.8204   90.2973    5.5741 C.ar    1  UNL1        0.0022
     27 C          60.8702   91.3547    4.5113 C.ar    1  UNL1        0.0103
     28 C          59.6107   92.0480    4.0835 C.ar    1  UNL1        0.0684
     29 C          58.3014   91.6838    4.7185 C.ar    1  UNL1        0.0103
     30 C          58.2516   90.6264    5.7812 C.ar    1  UNL1        0.0022
     31 C          59.6604   93.1053    3.0208 C.1     1  UNL1        0.1004
     32 N          59.7104   94.1627    1.9581 N.1     1  UNL1       -0.1908
@<TRIPOS>BOND
     1    16    17    1
     2    17    18    1
     3    18    19    1
     4    19    20    1
     5    20    21   am
     6    21    22    2
     7    21    10    1
     8    10    11   ar
     9    11    12   ar
    10    12    13   ar
    11    13     1    1
    12     1     2   ar
    13     2     3   ar
    14     3     4   ar
    15     4    25    1
    16    25    26   ar
    17    26    27   ar
    18    27    28   ar
    19    28    31    1
    20    31    32    3
    21    28    29   ar
    22    29    30   ar
    23     4     5   ar
    24     5     6   ar
    25     6     7   ar
    26     7     8   ar
    27     8     9   ar
    28    13    14   ar
    29    14    15   ar
    30    20    23    1
    31    23    24    1
    32    24    17    1
    33    15    10   ar
    34     9     1   ar
    35     7     3   ar
    36    30    25   ar
@<TRIPOS>MOLECULE
*****
 32 36 0 0 0
SMALL
GASTEIGER

@<TRIPOS>ATOM
      1 C          61.8201   94.9884   -2.5340 C.ar    1  UNL1        0.0989
      2 C          61.8020   94.4007   -1.1540 C.ar    1  UNL1        0.1006
      3 N          63.0720   94.3096   -0.3611 N.ar    1  UNL1       -0.2861
      4 C          63.3614   93.7834    1.0135 C.ar    1  UNL1        0.0846
      5 C          64.8283   93.9547    1.2760 C.ar    1  UNL1        0.1180
      6 N          65.4454   94.5867    0.0637 N.ar    1  UNL1       -0.2233
      7 C          64.3600   94.8061   -0.9480 C.ar    1  UNL1        0.1672
      8 C          64.3780   95.3938   -2.3280 C.ar    1  UNL1        0.1361
      9 N          63.1081   95.4850   -3.1209 N.ar    1  UNL1       -0.2392
     10 C          58.0101   95.2620   -4.9130 C.ar    1  UNL1        0.0536
     11 C          58.4157   93.9573   -4.2939 C.ar    1  UNL1        0.0046
     12 C          59.6857   93.8661   -3.5009 C.ar    1  UNL1        0.0017
     13 C          60.5500   95.0796   -3.3270 C.ar    1  UNL1        0.0191
     14 C          60.1445   96.3843   -3.9461 C.ar    1  UNL1        0.0017
     15 C          58.8745   96.4755   -4.7391 C.ar    1  UNL1        0.0046
     16 C          51.5983   96.8098   -2.9785 C.3     1  UNL1        0.0897
     17 N          52.8837   96.4456   -3.6604 N.3     1  UNL1       -0.2686
     18 C          54.1537   96.3545   -2.8674 C.3     1  UNL1        0.0939
     19 C          55.4392   95.9903   -3.5493 C.3     1  UNL1        0.1110
     20 N          55.4547   95.7173   -5.0241 N.am    1  UNL1       -0.2732
     21 C          56.7401   95.3532   -5.7060 C.2     1  UNL1        0.2491
     22 O          56.7556   95.0802   -7.1809 O.2     1  UNL1       -0.2699
     23 C          54.1847   95.8085   -5.8171 C.3     1  UNL1        0.1110
     24 C          52.8992   96.1726   -5.1353 C.3     1  UNL1        0.0939
     25 C          62.3598   93.1900    1.9594 C.ar    1  UNL1        0.0177
     26 C          60.9556   93.7162    1.9918 C.ar    1  UNL1        0.0022
     27 C          59.9539   93.1228    2.9377 C.ar    1  UNL1        0.0103
     28 C          60.3566   92.0033    3.8512 C.ar    1  UNL1        0.0684
     29 C          61.7609   91.4771    3.8188 C.ar    1  UNL1        0.0103
     30 C          62.7625   92.0704    2.8729 C.ar    1  UNL1        0.0022
     31 C          59.3550   91.4100    4.7971 C.1     1  UNL1        0.1004
     32 N          58.3535   90.8167    5.7431 N.1     1  UNL1       -0.1908
@<TRIPOS>BOND
     1    16    17    1
     2    17    18    1
     3    18    19    1
     4    19    20    1
     5    20    21   am
     6    21    22    2
     7    21    10    1
     8    10    11   ar
     9    11    12   ar
    10    12    13   ar
    11    13     1    1
    12     1     2   ar
    13     2     3   ar
    14     3     4   ar
    15     4    25    1
    16    25    26   ar
    17    26    27   ar
    18    27    28   ar
    19    28    31    1
    20    31    32    3
    21    28    29   ar
    22    29    30   ar
    23     4     5   ar
    24     5     6   ar
    25     6     7   ar
    26     7     8   ar
    27     8     9   ar
    28    13    14   ar
    29    14    15   ar
    30    20    23    1
    31    23    24    1
    32    24    17    1
    33    15    10   ar
    34     9     1   ar
    35     7     3   ar
    36    30    25   ar
@<TRIPOS>MOLECULE
*****
 32 36 0 0 0
SMALL
GASTEIGER

@<TRIPOS>ATOM
      1 C          63.8880   87.9590   15.2286 C.ar    1  UNL1        0.0989
      2 C          64.5661   89.0631   14.4729 C.ar    1  UNL1        0.1006
      3 N          64.5705   90.4575   15.0256 N.ar    1  UNL1       -0.2861
      4 C          65.1535   91.7398   14.5098 C.ar    1  UNL1        0.0846
      5 C          64.8401   92.8226   15.4994 C.ar    1  UNL1        0.1180
      6 N          64.0634   92.2096   16.6267 N.ar    1  UNL1       -0.2233
      7 C          63.8968   90.7479   16.3340 C.ar    1  UNL1        0.1672
      8 C          63.2187   89.6438   17.0896 C.ar    1  UNL1        0.1361
      9 N          63.2143   88.2494   16.5370 N.ar    1  UNL1       -0.2392
     10 C          63.8747   83.7755   13.5707 C.ar    1  UNL1        0.0536
     11 C          63.4991   84.9318   12.6919 C.ar    1  UNL1        0.0046
     12 C          63.5035   86.3262   13.2446 C.ar    1  UNL1        0.0017
     13 C          63.8836   86.5645   14.6760 C.ar    1  UNL1        0.0191
     14 C          64.2591   85.4083   15.5547 C.ar    1  UNL1        0.0017
     15 C          64.2547   84.0138   15.0020 C.ar    1  UNL1        0.0046
     16 C          59.3134   78.6788   14.2540 C.3     1  UNL1        0.0897
     17 N          60.4526   79.6044   13.9450 N.3     1  UNL1       -0.2686
     18 C          60.4570   80.9988   14.4977 C.3     1  UNL1        0.0939
     19 C          61.5963   81.9244   14.1887 C.3     1  UNL1        0.1110
     20 N          62.7310   81.4556   13.3270 N.am    1  UNL1       -0.2732
     21 C          63.8702   82.3811   13.0180 C.2     1  UNL1        0.2491
     22 O          65.0050   81.9122   12.1563 O.2     1  UNL1       -0.2699
     23 C          62.7265   80.0610   12.7743 C.3     1  UNL1        0.1110
     24 C          61.5873   79.1355   13.0834 C.3     1  UNL1        0.0939
     25 C          65.9161   91.9094   13.2293 C.ar    1  UNL1        0.0177
     26 C          65.1891   92.2547   11.9636 C.ar    1  UNL1        0.0022
     27 C          65.9517   92.4243   10.6830 C.ar    1  UNL1        0.0103
     28 C          67.4412   92.2485   10.6682 C.ar    1  UNL1        0.0684
     29 C          68.1683   91.9032   11.9340 C.ar    1  UNL1        0.0103
     30 C          67.4057   91.7336   13.2145 C.ar    1  UNL1        0.0022
     31 C          68.2038   92.4181    9.3877 C.1     1  UNL1        0.1004
     32 N          68.9664   92.5877    8.1073 N.1     1  UNL1       -0.1908
@<TRIPOS>BOND
     1    16    17    1
     2    17    18    1
     3    18    19    1
     4    19    20    1
     5    20    21   am
     6    21    22    2
     7    21    10    1
     8    10    11   ar
     9    11    12   ar
    10    12    13   ar
    11    13     1    1
    12     1     2   ar
    13     2     3   ar
    14     3     4   ar
    15     4    25    1
    16    25    26   ar
    17    26    27   ar
    18    27    28   ar
    19    28    31    1
    20    31    32    3
    21    28    29   ar
    22    29    30   ar
    23     4     5   ar
    24     5     6   ar
    25     6     7   ar
    26     7     8   ar
    27     8     9   ar
    28    13    14   ar
    29    14    15   ar
    30    20    23    1
    31    23    24    1
    32    24    17    1
    33    15    10   ar
    34     9     1   ar
    35     7     3   ar
    36    30    25   ar
@<TRIPOS>MOLECULE
*****
 32 36 0 0 0
SMALL
GASTEIGER

@<TRIPOS>ATOM
      1 C          59.8784   89.5405    6.8896 C.ar    1  UNL1        0.0989
      2 C          60.7588   89.7914    8.0778 C.ar    1  UNL1        0.1006
      3 N          60.7164   88.8598    9.2526 N.ar    1  UNL1       -0.2861
      4 C          61.4618   88.8514   10.5543 C.ar    1  UNL1        0.0846
      5 C          60.9996   87.6638   11.3455 C.ar    1  UNL1        0.1180
      6 N          59.9686   86.9382   10.5328 N.ar    1  UNL1       -0.2233
      7 C          59.7936   87.6774    9.2393 C.ar    1  UNL1        0.1672
      8 C          58.9131   87.4265    8.0511 C.ar    1  UNL1        0.1361
      9 N          58.9555   88.3581    6.8763 N.ar    1  UNL1       -0.2392
     10 C          60.0056   92.3352    3.3648 C.ar    1  UNL1        0.0536
     11 C          61.2557   91.6399    3.8162 C.ar    1  UNL1        0.0046
     12 C          61.2133   90.7084    4.9911 C.ar    1  UNL1        0.0017
     13 C          59.9208   90.4721    5.7147 C.ar    1  UNL1        0.0191
     14 C          58.6706   91.1674    5.2633 C.ar    1  UNL1        0.0017
     15 C          58.7130   92.0990    4.0884 C.ar    1  UNL1        0.0046
     16 C          65.3238   95.1784    0.0662 C.3     1  UNL1        0.0897
     17 N          64.0049   94.7005    0.5971 N.3     1  UNL1       -0.2686
     18 C          63.9625   93.7690    1.7720 C.3     1  UNL1        0.0939
     19 C          62.6435   93.2910    2.3030 C.3     1  UNL1        0.1110
     20 N          61.3669   93.7447    1.6590 N.am    1  UNL1       -0.2732
     21 C          60.0480   93.2668    2.1899 C.2     1  UNL1        0.2491
     22 O          58.7714   93.7204    1.5460 O.2     1  UNL1       -0.2699
     23 C          61.4094   94.6763    0.4841 C.3     1  UNL1        0.1110
     24 C          62.7284   95.1542   -0.0468 C.3     1  UNL1        0.0939
     25 C          62.4890   89.8545   10.9886 C.ar    1  UNL1        0.0177
     26 C          63.0121   89.8319   12.3941 C.ar    1  UNL1        0.0022
     27 C          64.0394   90.8350   12.8284 C.ar    1  UNL1        0.0103
     28 C          64.5434   91.8609   11.8570 C.ar    1  UNL1        0.0684
     29 C          64.0203   91.8836   10.4514 C.ar    1  UNL1        0.0103
     30 C          62.9931   90.8804   10.0171 C.ar    1  UNL1        0.0022
     31 C          65.5706   92.8640   12.2913 C.1     1  UNL1        0.1004
     32 N          66.5977   93.8672   12.7255 N.1     1  UNL1       -0.1908
@<TRIPOS>BOND
     1    16    17    1
     2    17    18    1
     3    18    19    1
     4    19    20    1
     5    20    21   am
     6    21    22    2
     7    21    10    1
     8    10    11   ar
     9    11    12   ar
    10    12    13   ar
    11    13     1    1
    12     1     2   ar
    13     2     3   ar
    14     3     4   ar
    15     4    25    1
    16    25    26   ar
    17    26    27   ar
    18    27    28   ar
    19    28    31    1
    20    31    32    3
    21    28    29   ar
    22    29    30   ar
    23     4     5   ar
    24     5     6   ar
    25     6     7   ar
    26     7     8   ar
    27     8     9   ar
    28    13    14   ar
    29    14    15   ar
    30    20    23    1
    31    23    24    1
    32    24    17    1
    33    15    10   ar
    34     9     1   ar
    35     7     3   ar
    36    30    25   ar
@<TRIPOS>MOLECULE
*****
 32 36 0 0 0
SMALL
GASTEIGER

@<TRIPOS>ATOM
      1 C          59.8561   89.5471    6.6438 C.ar    1  UNL1        0.0989
      2 C          60.6879   89.6720    7.8858 C.ar    1  UNL1        0.1006
      3 N          60.6885   88.5688    8.9021 N.ar    1  UNL1       -0.2861
      4 C          61.4024   88.4111   10.2118 C.ar    1  UNL1        0.0846
      5 C          61.0124   87.0855   10.7957 C.ar    1  UNL1        0.1180
      6 N          60.0575   86.4240    9.8467 N.ar    1  UNL1       -0.2233
      7 C          59.8573   87.3407    8.6764 C.ar    1  UNL1        0.1672
      8 C          59.0255   87.2159    7.4344 C.ar    1  UNL1        0.1361
      9 N          59.0249   88.3191    6.4182 N.ar    1  UNL1       -0.2392
     10 C          59.8542   92.8568    3.5948 C.ar    1  UNL1        0.0536
     11 C          58.6081   92.5528    4.3725 C.ar    1  UNL1        0.0046
     12 C          58.6087   91.4496    5.3888 C.ar    1  UNL1        0.0017
     13 C          59.8555   90.6504    5.6274 C.ar    1  UNL1        0.0191
     14 C          61.1016   90.9544    4.8498 C.ar    1  UNL1        0.0017
     15 C          61.1010   92.0576    3.8334 C.ar    1  UNL1        0.0046
     16 C          58.7502   92.7254   -3.1885 C.3     1  UNL1        0.0897
     17 N          59.0260   93.0341   -1.7468 N.3     1  UNL1       -0.2686
     18 C          59.0267   91.9309   -0.7305 C.3     1  UNL1        0.0939
     19 C          59.3025   92.2395    0.7113 C.3     1  UNL1        0.1110
     20 N          59.5777   93.6514    1.1367 N.am    1  UNL1       -0.2732
     21 C          59.8536   93.9600    2.5785 C.2     1  UNL1        0.2491
     22 O          60.1287   95.3719    3.0039 O.2     1  UNL1       -0.2699
     23 C          59.5771   94.7546    0.1203 C.3     1  UNL1        0.1110
     24 C          59.3012   94.4459   -1.3214 C.3     1  UNL1        0.0939
     25 C          62.3414   89.4045   10.8293 C.ar    1  UNL1        0.0177
     26 C          62.7544   90.6244   10.0606 C.ar    1  UNL1        0.0022
     27 C          63.6934   91.6179   10.6781 C.ar    1  UNL1        0.0103
     28 C          64.2195   91.3914   12.0644 C.ar    1  UNL1        0.0684
     29 C          63.8065   90.1714   12.8333 C.ar    1  UNL1        0.0103
     30 C          62.8674   89.1780   12.2158 C.ar    1  UNL1        0.0022
     31 C          65.1585   92.3848   12.6819 C.1     1  UNL1        0.1004
     32 N          66.0975   93.3783   13.2993 N.1     1  UNL1       -0.1908
@<TRIPOS>BOND
     1    16    17    1
     2    17    18    1
     3    18    19    1
     4    19    20    1
     5    20    21   am
     6    21    22    2
     7    21    10    1
     8    10    11   ar
     9    11    12   ar
    10    12    13   ar
    11    13     1    1
    12     1     2   ar
    13     2     3   ar
    14     3     4   ar
    15     4    25    1
    16    25    26   ar
    17    26    27   ar
    18    27    28   ar
    19    28    31    1
    20    31    32    3
    21    28    29   ar
    22    29    30   ar
    23     4     5   ar
    24     5     6   ar
    25     6     7   ar
    26     7     8   ar
    27     8     9   ar
    28    13    14   ar
    29    14    15   ar
    30    20    23    1
    31    23    24    1
    32    24    17    1
    33    15    10   ar
    34     9     1   ar
    35     7     3   ar
    36    30    25   ar
@<TRIPOS>MOLECULE
*****
 32 36 0 0 0
SMALL
GASTEIGER

@<TRIPOS>ATOM
      1 C          59.8097   93.2752    2.8486 C.ar    1  UNL1        0.0989
      2 C          59.1510   93.1058    1.5117 C.ar    1  UNL1        0.1006
      3 N          59.2925   94.1713    0.4655 N.ar    1  UNL1       -0.2861
      4 C          58.7612   94.2817   -0.9329 C.ar    1  UNL1        0.0846
      5 C          59.2330   95.5849   -1.5066 C.ar    1  UNL1        0.1180
      6 N          60.0559   96.2799   -0.4626 N.ar    1  UNL1       -0.2233
      7 C          60.0927   95.4063    0.7561 C.ar    1  UNL1        0.1672
      8 C          60.7514   95.5757    2.0930 C.ar    1  UNL1        0.1361
      9 N          60.6099   94.5102    3.1392 N.ar    1  UNL1       -0.2392
     10 C          59.3854   90.0786    5.9874 C.ar    1  UNL1        0.0536
     11 C          60.7327   90.3794    5.4006 C.ar    1  UNL1        0.0046
     12 C          60.8741   91.4449    4.3543 C.ar    1  UNL1        0.0017
     13 C          59.6683   92.2097    3.8949 C.ar    1  UNL1        0.0191
     14 C          58.3210   91.9089    4.4817 C.ar    1  UNL1        0.0017
     15 C          58.1796   90.8434    5.5280 C.ar    1  UNL1        0.0046
     16 C          62.2961   89.4399   12.1817 C.3     1  UNL1        0.0897
     17 N          61.5331   89.3332   10.8947 N.3     1  UNL1       -0.2686
     18 C          61.6745   90.3987    9.8485 C.3     1  UNL1        0.0939
     19 C          60.9114   90.2921    8.5614 C.3     1  UNL1        0.1110
     20 N          60.0070   89.1198    8.3206 N.am    1  UNL1       -0.2732
     21 C          59.2440   89.0131    7.0337 C.2     1  UNL1        0.2491
     22 O          58.3396   87.8409    6.7929 O.2     1  UNL1       -0.2699
     23 C          59.8656   88.0543    9.3670 C.3     1  UNL1        0.1110
     24 C          60.6287   88.1610   10.6540 C.3     1  UNL1        0.0939
     25 C          57.9079   93.2670   -1.6346 C.ar    1  UNL1        0.0177
     26 C          58.4235   92.5715   -2.8594 C.ar    1  UNL1        0.0022
     27 C          57.5702   91.5568   -3.5610 C.ar    1  UNL1        0.0103
     28 C          56.2012   91.2376   -3.0377 C.ar    1  UNL1        0.0684
     29 C          55.6854   91.9331   -1.8128 C.ar    1  UNL1        0.0103
     30 C          56.5388   92.9478   -1.1112 C.ar    1  UNL1        0.0022
     31 C          55.3478   90.2229   -3.7393 C.1     1  UNL1        0.1004
     32 N          54.4945   89.2084   -4.4410 N.1     1  UNL1       -0.1908
@<TRIPOS>BOND
     1    16    17    1
     2    17    18    1
     3    18    19    1
     4    19    20    1
     5    20    21   am
     6    21    22    2
     7    21    10    1
     8    10    11   ar
     9    11    12   ar
    10    12    13   ar
    11    13     1    1
    12     1     2   ar
    13     2     3   ar
    14     3     4   ar
    15     4    25    1
    16    25    26   ar
    17    26    27   ar
    18    27    28   ar
    19    28    31    1
    20    31    32    3
    21    28    29   ar
    22    29    30   ar
    23     4     5   ar
    24     5     6   ar
    25     6     7   ar
    26     7     8   ar
    27     8     9   ar
    28    13    14   ar
    29    14    15   ar
    30    20    23    1
    31    23    24    1
    32    24    17    1
    33    15    10   ar
    34     9     1   ar
    35     7     3   ar
    36    30    25   ar
