@<TRIPOS>MOLECULE
*****
 40 44 0 0 0
SMALL
GASTEIGER

@<TRIPOS>ATOM
      1 N          63.1928   90.5038   13.0619 N.pl3   1  UNL1       -0.0733
      2 C          63.2652   89.0210   12.8472 C.2     1  UNL1        0.3864
      3 C          69.5069   94.1525   15.9674 C.3     1  UNL1        0.0725
      4 C          68.2015   93.4711   15.6822 C.ar    1  UNL1        0.1233
      5 C          67.7513   92.9506   14.3493 C.ar    1  UNL1        0.0361
      6 C          66.3885   92.3483   14.5231 C.ar    1  UNL1        0.0402
      7 C          65.4540   91.6840   13.5560 C.ar    1  UNL1        0.0402
      8 C          64.1274   91.1681   14.0291 C.ar    1  UNL1        0.1588
      9 C          63.7353   91.3164   15.4693 C.ar    1  UNL1        0.0402
     10 C          64.6699   91.9806   16.4364 C.ar    1  UNL1        0.0405
     11 C          65.9964   92.4966   15.9633 C.ar    1  UNL1        0.1450
     12 O          67.1169   93.1905   16.6796 O.2     1  UNL1       -0.4577
     13 N          62.3306   88.3567   11.8801 N.am    1  UNL1       -0.1702
     14 C          62.1932   88.8886   10.4843 C.2     1  UNL1        0.3093
     15 O          62.9905   90.0848   10.0556 O.2     1  UNL1       -0.2515
     16 H          61.8074   87.5716   12.1614 H       1  UNL1        0.2545
     17 C          61.2587   88.2243    9.5171 C.ar    1  UNL1        0.0888
     18 C          61.4124   86.7646    9.2079 C.ar    1  UNL1        0.0092
     19 C          60.4779   86.1004    8.2408 C.ar    1  UNL1        0.0209
     20 C          59.3896   86.8959    7.5828 C.ar    1  UNL1        0.0989
     21 N          59.2359   88.3556    7.8920 N.ar    1  UNL1       -0.2421
     22 C          60.1705   89.0198    8.8592 C.ar    1  UNL1        0.1049
     23 N          64.2721   88.2025   13.5996 N.pl3   1  UNL1       -0.2584
     24 H          65.2146   88.1983   13.3151 H       1  UNL1        0.2590
     25 C          63.8431   87.3903   14.7855 C.3     1  UNL1        0.2142
     26 C          63.3187   88.1713   15.9538 C.3     1  UNL1        0.0490
     27 C          62.8168   87.6596   17.2715 C.3     1  UNL1        0.0057
     28 C          62.7154   86.2402   17.7462 C.3     1  UNL1        0.0216
     29 C          63.0908   84.9823   17.0206 C.3     1  UNL1        0.0940
     30 N          63.6603   84.8329   15.6410 N.am    1  UNL1       -0.2686
     31 C          63.9951   85.9046   14.6462 C.2     1  UNL1        0.2622
     32 O          64.5561   85.4275   13.3395 O.2     1  UNL1       -0.2712
     33 C          63.9309   83.4258   15.1973 C.3     1  UNL1        0.1794
     34 C          62.9547   82.7207   14.3029 C.2     1  UNL1        0.2459
     35 O          61.6252   82.2823   14.8414 O.2     1  UNL1       -0.2730
     36 N          63.3082   82.4540   12.8696 N.am    1  UNL1       -0.2781
     37 C          64.5928   82.8314   12.1935 C.3     1  UNL1        0.0935
     38 C          64.5176   82.3738   10.7670 C.3     1  UNL1        0.0233
     39 C          63.1865   81.7136   10.5615 C.3     1  UNL1        0.0233
     40 C          62.4390   81.7631   11.8610 C.3     1  UNL1        0.0935
@<TRIPOS>BOND
     1     3     4    1
     2     4     5   ar
     3     5     6   ar
     4     6     7   ar
     5     7     8   ar
     6     8     1    1
     7     1     2    2
     8     2    13    1
     9    13    14   am
    10    14    15    2
    11    14    17    1
    12    17    18   ar
    13    18    19   ar
    14    19    20   ar
    15    20    21   ar
    16    21    22   ar
    17     2    23    1
    18    25    23    1
    19    25    26    1
    20    26    27    1
    21    27    28    1
    22    28    29    1
    23    29    30    1
    24    30    33    1
    25    33    34    1
    26    34    35    2
    27    34    36   am
    28    36    37    1
    29    37    38    1
    30    38    39    1
    31    39    40    1
    32    30    31   am
    33    31    32    2
    34     8     9   ar
    35     9    10   ar
    36    10    11   ar
    37    11    12   ar
    38    12     4   ar
    39    11     6   ar
    40    22    17   ar
    41    31    25    1
    42    40    36    1
    43    13    16    1
    44    23    24    1
@<TRIPOS>MOLECULE
*****
 40 44 0 0 0
SMALL
GASTEIGER

@<TRIPOS>ATOM
      1 N          61.5862   86.8212    8.7769 N.pl3   1  UNL1       -0.0733
      2 C          61.2556   88.1847    9.3075 C.2     1  UNL1        0.3864
      3 C          63.6030   82.8230   15.2244 C.3     1  UNL1        0.0725
      4 C          63.3891   83.3998   13.8564 C.ar    1  UNL1        0.1233
      5 C          62.5209   84.5763   13.5214 C.ar    1  UNL1        0.0361
      6 C          62.6010   84.8050   12.0411 C.ar    1  UNL1        0.0402
      7 C          61.9568   85.8221   11.1464 C.ar    1  UNL1        0.0402
      8 C          62.2304   85.8041    9.6717 C.ar    1  UNL1        0.1588
      9 C          63.1480   84.7689    9.0917 C.ar    1  UNL1        0.0402
     10 C          63.7921   83.7518    9.9864 C.ar    1  UNL1        0.0405
     11 C          63.5186   83.7699   11.4611 C.ar    1  UNL1        0.1450
     12 O          64.0056   82.9014   12.5830 O.2     1  UNL1       -0.4577
     13 N          60.6114   89.2018    8.4127 N.am    1  UNL1       -0.1702
     14 C          59.6873   88.7590    7.3173 C.2     1  UNL1        0.3093
     15 O          59.4073   87.2990    7.1167 O.2     1  UNL1       -0.2515
     16 H          60.7952   90.1600    8.5444 H       1  UNL1        0.2545
     17 C          59.0432   89.7760    6.4225 C.ar    1  UNL1        0.0888
     18 C          59.8942   90.7084    5.6124 C.ar    1  UNL1        0.0092
     19 C          59.2501   91.7255    4.7176 C.ar    1  UNL1        0.0209
     20 C          57.7549   91.8101    4.6329 C.ar    1  UNL1        0.0989
     21 N          56.9038   90.8777    5.4430 N.ar    1  UNL1       -0.2421
     22 C          57.5480   89.8606    6.3378 C.ar    1  UNL1        0.1049
     23 N          61.5690   88.5311   10.7329 N.pl3   1  UNL1       -0.2584
     24 H          61.1405   88.0331   11.4662 H       1  UNL1        0.2590
     25 C          62.5353   89.6363   11.0411 C.3     1  UNL1        0.2142
     26 C          62.7354   90.6482    9.9521 C.3     1  UNL1        0.0490
     27 C          63.6233   91.8572    9.9505 C.3     1  UNL1        0.0057
     28 C          64.5304   92.3528   11.0376 C.3     1  UNL1        0.0216
     29 C          64.7736   91.7618   12.3946 C.3     1  UNL1        0.0940
     30 N          64.1698   90.5293   12.9998 N.am    1  UNL1       -0.2686
     31 C          63.1736   89.5832   12.3974 C.2     1  UNL1        0.2622
     32 O          62.7613   88.4321   13.2662 O.2     1  UNL1       -0.2712
     33 C          64.6219   90.1989   14.3913 C.3     1  UNL1        0.1794
     34 C          64.9471   91.3009   15.3556 C.2     1  UNL1        0.2459
     35 O          63.8978   91.8029   16.3027 O.2     1  UNL1       -0.2730
     36 N          66.3218   91.9010   15.3729 N.am    1  UNL1       -0.2781
     37 C          67.4680   91.5046   14.4902 C.3     1  UNL1        0.0935
     38 C          68.6462   92.3614   14.8476 C.3     1  UNL1        0.0233
     39 C          68.2282   93.2874   15.9511 C.3     1  UNL1        0.0233
     40 C          66.7916   93.0029   16.2757 C.3     1  UNL1        0.0935
@<TRIPOS>BOND
     1     3     4    1
     2     4     5   ar
     3     5     6   ar
     4     6     7   ar
     5     7     8   ar
     6     8     1    1
     7     1     2    2
     8     2    13    1
     9    13    14   am
    10    14    15    2
    11    14    17    1
    12    17    18   ar
    13    18    19   ar
    14    19    20   ar
    15    20    21   ar
    16    21    22   ar
    17     2    23    1
    18    25    23    1
    19    25    26    1
    20    26    27    1
    21    27    28    1
    22    28    29    1
    23    29    30    1
    24    30    33    1
    25    33    34    1
    26    34    35    2
    27    34    36   am
    28    36    37    1
    29    37    38    1
    30    38    39    1
    31    39    40    1
    32    30    31   am
    33    31    32    2
    34     8     9   ar
    35     9    10   ar
    36    10    11   ar
    37    11    12   ar
    38    12     4   ar
    39    11     6   ar
    40    22    17   ar
    41    31    25    1
    42    40    36    1
    43    13    16    1
    44    23    24    1
@<TRIPOS>MOLECULE
*****
 40 44 0 0 0
SMALL
GASTEIGER

@<TRIPOS>ATOM
      1 N          63.1133   90.5721   12.7793 N.pl3   1  UNL1       -0.0733
      2 C          64.1411   89.8409   13.5911 C.2     1  UNL1        0.3864
      3 C          60.1627   85.6465    7.4262 C.3     1  UNL1        0.0725
      4 C          60.4505   86.6420    8.5107 C.ar    1  UNL1        0.1233
      5 C          61.8106   87.0750    8.9718 C.ar    1  UNL1        0.0361
      6 C          61.6295   88.0798   10.0706 C.ar    1  UNL1        0.0402
      7 C          62.6148   88.8479   10.9008 C.ar    1  UNL1        0.0402
      8 C          62.1280   89.8039   11.9491 C.ar    1  UNL1        0.1588
      9 C          60.6559   89.9919   12.1672 C.ar    1  UNL1        0.0402
     10 C          59.6706   89.2238   11.3370 C.ar    1  UNL1        0.0405
     11 C          60.1574   88.2678   10.2888 C.ar    1  UNL1        0.1450
     12 O          59.4288   87.3791    9.3247 O.2     1  UNL1       -0.4577
     13 N          65.1264   90.6090   14.4213 N.am    1  UNL1       -0.1702
     14 C          66.0500   91.5944   13.7686 C.2     1  UNL1        0.3093
     15 O          65.9883   91.8116   12.2857 O.2     1  UNL1       -0.2515
     16 H          65.1668   90.4665   15.3946 H       1  UNL1        0.2545
     17 C          67.0353   92.3625   14.5988 C.ar    1  UNL1        0.0888
     18 C          68.0368   91.6308   15.4423 C.ar    1  UNL1        0.0092
     19 C          69.0220   92.3989   16.2725 C.ar    1  UNL1        0.0209
     20 C          69.0058   93.8988   16.2591 C.ar    1  UNL1        0.0989
     21 N          68.0043   94.6305   15.4155 N.ar    1  UNL1       -0.2421
     22 C          67.0190   93.8623   14.5854 C.ar    1  UNL1        0.1049
     23 N          64.1836   88.3416   13.5727 N.pl3   1  UNL1       -0.2584
     24 H          64.4608   87.8670   12.7559 H       1  UNL1        0.2590
     25 C          63.8037   87.5654   14.7988 C.3     1  UNL1        0.2142
     26 C          63.3155   88.3804   15.9597 C.3     1  UNL1        0.0490
     27 C          62.8653   87.9083   17.3103 C.3     1  UNL1        0.0057
     28 C          62.7920   86.5044   17.8337 C.3     1  UNL1        0.0216
     29 C          63.1510   85.2261   17.1358 C.3     1  UNL1        0.0940
     30 N          63.6718   85.0359   15.7421 N.am    1  UNL1       -0.2686
     31 C          63.9623   86.0770   14.7019 C.2     1  UNL1        0.2622
     32 O          64.4797   85.5616   13.3918 O.2     1  UNL1       -0.2712
     33 C          63.9372   83.6170   15.3344 C.3     1  UNL1        0.1794
     34 C          62.9482   82.8860   14.4755 C.2     1  UNL1        0.2459
     35 O          61.6183   82.4827   15.0401 O.2     1  UNL1       -0.2730
     36 N          63.2892   82.5582   13.0520 N.am    1  UNL1       -0.2781
     37 C          64.5727   82.8954   12.3528 C.3     1  UNL1        0.0935
     38 C          64.4833   82.3813   10.9464 C.3     1  UNL1        0.0233
     39 C          63.1445   81.7265   10.7765 C.3     1  UNL1        0.0233
     40 C          62.4065   81.8358   12.0778 C.3     1  UNL1        0.0935
@<TRIPOS>BOND
     1     3     4    1
     2     4     5   ar
     3     5     6   ar
     4     6     7   ar
     5     7     8   ar
     6     8     1    1
     7     1     2    2
     8     2    13    1
     9    13    14   am
    10    14    15    2
    11    14    17    1
    12    17    18   ar
    13    18    19   ar
    14    19    20   ar
    15    20    21   ar
    16    21    22   ar
    17     2    23    1
    18    25    23    1
    19    25    26    1
    20    26    27    1
    21    27    28    1
    22    28    29    1
    23    29    30    1
    24    30    33    1
    25    33    34    1
    26    34    35    2
    27    34    36   am
    28    36    37    1
    29    37    38    1
    30    38    39    1
    31    39    40    1
    32    30    31   am
    33    31    32    2
    34     8     9   ar
    35     9    10   ar
    36    10    11   ar
    37    11    12   ar
    38    12     4   ar
    39    11     6   ar
    40    22    17   ar
    41    31    25    1
    42    40    36    1
    43    13    16    1
    44    23    24    1
@<TRIPOS>MOLECULE
*****
 40 44 0 0 0
SMALL
GASTEIGER

@<TRIPOS>ATOM
      1 N          64.2444   91.2445   14.3709 N.pl3   1  UNL1       -0.0733
      2 C          64.3185   91.2770   12.8732 C.2     1  UNL1        0.3864
      3 C          63.8768   83.5607   15.9356 C.3     1  UNL1        0.0725
      4 C          63.8186   85.0590   15.8926 C.ar    1  UNL1        0.1233
      5 C          64.3237   85.9294   14.7803 C.ar    1  UNL1        0.0361
      6 C          64.0623   87.3582   15.1545 C.ar    1  UNL1        0.0402
      7 C          64.3452   88.6494   14.4454 C.ar    1  UNL1        0.0402
      8 C          63.9615   89.9532   15.0800 C.ar    1  UNL1        0.1588
      9 C          63.2949   89.9659   16.4237 C.ar    1  UNL1        0.0402
     10 C          63.0120   88.6747   17.1328 C.ar    1  UNL1        0.0405
     11 C          63.3957   87.3709   16.4982 C.ar    1  UNL1        0.1450
     12 O          63.2451   85.9499   16.9543 O.2     1  UNL1       -0.4577
     13 N          64.6014   92.5682   12.1641 N.am    1  UNL1       -0.1702
     14 C          66.0170   92.9679   11.8700 C.2     1  UNL1        0.3093
     15 O          67.1496   92.0763   12.2851 O.2     1  UNL1       -0.2515
     16 H          63.8580   93.1534   11.8917 H       1  UNL1        0.2545
     17 C          66.2999   94.2590   11.1610 C.ar    1  UNL1        0.0888
     18 C          66.1590   95.5620   11.8907 C.ar    1  UNL1        0.0092
     19 C          66.4420   96.8531   11.1817 C.ar    1  UNL1        0.0209
     20 C          66.8658   96.8414    9.7428 C.ar    1  UNL1        0.0989
     21 N          67.0066   95.5385    9.0130 N.ar    1  UNL1       -0.2421
     22 C          66.7237   94.2473    9.7222 C.ar    1  UNL1        0.1049
     23 N          64.1097   90.0183   12.0844 N.pl3   1  UNL1       -0.2584
     24 H          64.8596   89.3965   11.9420 H       1  UNL1        0.2590
     25 C          62.7584   89.7070   11.5125 C.3     1  UNL1        0.2142
     26 C          61.9215   90.8938   11.1370 C.3     1  UNL1        0.0490
     27 C          60.5422   90.9169   10.5480 C.3     1  UNL1        0.0057
     28 C          59.6590   89.7587   10.1891 C.3     1  UNL1        0.0216
     29 C          59.9371   88.2916   10.3306 C.3     1  UNL1        0.0940
     30 N          61.1670   87.6202   10.8658 N.am    1  UNL1       -0.2686
     31 C          62.4226   88.2501   11.3919 C.2     1  UNL1        0.2622
     32 O          63.4826   87.2971   11.8590 O.2     1  UNL1       -0.2712
     33 C          61.1375   86.1205   10.8765 C.3     1  UNL1        0.1794
     34 C          62.1307   85.3450   10.0628 C.2     1  UNL1        0.2459
     35 O          62.3467   85.6867    8.6183 O.2     1  UNL1       -0.2730
     36 N          62.9080   84.2279   10.6935 N.am    1  UNL1       -0.2781
     37 C          62.8000   83.7739   12.1191 C.3     1  UNL1        0.0935
     38 C          63.7550   82.6340   12.3161 C.3     1  UNL1        0.0233
     39 C          64.4531   82.3835   11.0124 C.3     1  UNL1        0.0233
     40 C          63.9297   83.3686   10.0095 C.3     1  UNL1        0.0935
@<TRIPOS>BOND
     1     3     4    1
     2     4     5   ar
     3     5     6   ar
     4     6     7   ar
     5     7     8   ar
     6     8     1    1
     7     1     2    2
     8     2    13    1
     9    13    14   am
    10    14    15    2
    11    14    17    1
    12    17    18   ar
    13    18    19   ar
    14    19    20   ar
    15    20    21   ar
    16    21    22   ar
    17     2    23    1
    18    25    23    1
    19    25    26    1
    20    26    27    1
    21    27    28    1
    22    28    29    1
    23    29    30    1
    24    30    33    1
    25    33    34    1
    26    34    35    2
    27    34    36   am
    28    36    37    1
    29    37    38    1
    30    38    39    1
    31    39    40    1
    32    30    31   am
    33    31    32    2
    34     8     9   ar
    35     9    10   ar
    36    10    11   ar
    37    11    12   ar
    38    12     4   ar
    39    11     6   ar
    40    22    17   ar
    41    31    25    1
    42    40    36    1
    43    13    16    1
    44    23    24    1
@<TRIPOS>MOLECULE
*****
 40 44 0 0 0
SMALL
GASTEIGER

@<TRIPOS>ATOM
      1 N          63.8488   90.7349   11.8645 N.pl3   1  UNL1       -0.0733
      2 C          62.9878   89.5102   11.9575 C.2     1  UNL1        0.3864
      3 C          69.2191   94.1773   16.4397 C.3     1  UNL1        0.0725
      4 C          68.0540   93.4706   15.8129 C.ar    1  UNL1        0.1233
      5 C          67.8667   93.2072   14.3481 C.ar    1  UNL1        0.0361
      6 C          66.5685   92.4770   14.1707 C.ar    1  UNL1        0.0402
      7 C          65.8670   91.9590   12.9502 C.ar    1  UNL1        0.0402
      8 C          64.5504   91.2530   13.0849 C.ar    1  UNL1        0.1588
      9 C          63.9353   91.0652   14.4401 C.ar    1  UNL1        0.0402
     10 C          64.6368   91.5832   15.6605 C.ar    1  UNL1        0.0405
     11 C          65.9534   92.2892   15.5258 C.ar    1  UNL1        0.1450
     12 O          66.8714   92.9032   16.5407 O.2     1  UNL1       -0.4577
     13 N          62.2862   88.9921   10.7371 N.am    1  UNL1       -0.1702
     14 C          60.8388   89.3141   10.5106 C.2     1  UNL1        0.3093
     15 O          60.0929   90.1542   11.5047 O.2     1  UNL1       -0.2515
     16 H          62.7758   88.4407   10.0847 H       1  UNL1        0.2545
     17 C          60.1372   88.7960    9.2903 C.ar    1  UNL1        0.0888
     18 C          60.0121   89.6627    8.0724 C.ar    1  UNL1        0.0092
     19 C          59.3106   89.1447    6.8520 C.ar    1  UNL1        0.0209
     20 C          58.7340   87.7598    6.8495 C.ar    1  UNL1        0.0989
     21 N          58.8591   86.8931    8.0673 N.ar    1  UNL1       -0.2421
     22 C          59.5607   87.4113    9.2878 C.ar    1  UNL1        0.1049
     23 N          62.8282   88.8036   13.2710 N.pl3   1  UNL1       -0.2584
     24 H          62.2854   89.2090   13.9853 H       1  UNL1        0.2590
     25 C          63.4958   87.4793   13.4962 C.3     1  UNL1        0.2142
     26 C          64.5167   87.4435   14.5946 C.3     1  UNL1        0.0490
     27 C          65.3481   86.2856   15.0613 C.3     1  UNL1        0.0057
     28 C          65.3640   84.8774   14.5448 C.3     1  UNL1        0.0216
     29 C          64.5525   84.2794   13.4341 C.3     1  UNL1        0.0940
     30 N          63.5246   84.9419   12.5655 N.am    1  UNL1       -0.2686
     31 C          63.0543   86.3660   12.5931 C.2     1  UNL1        0.2622
     32 O          62.0036   86.7242   11.5843 O.2     1  UNL1       -0.2712
     33 C          62.8819   84.0643   11.5327 C.3     1  UNL1        0.1794
     34 C          63.2514   82.6130   11.4468 C.2     1  UNL1        0.2459
     35 O          64.2405   82.1504   10.4184 O.2     1  UNL1       -0.2730
     36 N          62.6317   81.6242   12.3893 N.am    1  UNL1       -0.2781
     37 C          61.6328   81.9370   13.4638 C.3     1  UNL1        0.0935
     38 C          61.2858   80.6552   14.1614 C.3     1  UNL1        0.0233
     39 C          62.0702   79.5503   13.5181 C.3     1  UNL1        0.0233
     40 C          62.9020   80.1491   12.4229 C.3     1  UNL1        0.0935
@<TRIPOS>BOND
     1     3     4    1
     2     4     5   ar
     3     5     6   ar
     4     6     7   ar
     5     7     8   ar
     6     8     1    1
     7     1     2    2
     8     2    13    1
     9    13    14   am
    10    14    15    2
    11    14    17    1
    12    17    18   ar
    13    18    19   ar
    14    19    20   ar
    15    20    21   ar
    16    21    22   ar
    17     2    23    1
    18    25    23    1
    19    25    26    1
    20    26    27    1
    21    27    28    1
    22    28    29    1
    23    29    30    1
    24    30    33    1
    25    33    34    1
    26    34    35    2
    27    34    36   am
    28    36    37    1
    29    37    38    1
    30    38    39    1
    31    39    40    1
    32    30    31   am
    33    31    32    2
    34     8     9   ar
    35     9    10   ar
    36    10    11   ar
    37    11    12   ar
    38    12     4   ar
    39    11     6   ar
    40    22    17   ar
    41    31    25    1
    42    40    36    1
    43    13    16    1
    44    23    24    1
@<TRIPOS>MOLECULE
*****
 40 44 0 0 0
SMALL
GASTEIGER

@<TRIPOS>ATOM
      1 N          63.2046   87.4067   15.5068 N.pl3   1  UNL1       -0.0733
      2 C          63.2592   86.7051   14.1822 C.2     1  UNL1        0.3864
      3 C          67.5255   93.8612   14.3698 C.3     1  UNL1        0.0725
      4 C          66.5583   92.7900   14.7784 C.ar    1  UNL1        0.1233
      5 C          66.5136   91.3905   14.2404 C.ar    1  UNL1        0.0361
      6 C          65.3937   90.6657   14.9262 C.ar    1  UNL1        0.0402
      7 C          64.8799   89.2622   14.7991 C.ar    1  UNL1        0.0402
      8 C          63.7185   88.8102   15.6339 C.ar    1  UNL1        0.1588
      9 C          63.0710   89.7618   16.5958 C.ar    1  UNL1        0.0402
     10 C          63.5848   91.1653   16.7229 C.ar    1  UNL1        0.0405
     11 C          64.7461   91.6172   15.8881 C.ar    1  UNL1        0.1450
     12 O          65.4659   92.9301   15.7968 O.2     1  UNL1       -0.4577
     13 N          62.7454   85.3015   14.0551 N.am    1  UNL1       -0.1702
     14 C          63.7018   84.1718   13.8122 C.2     1  UNL1        0.3093
     15 O          65.1721   84.4457   13.6964 O.2     1  UNL1       -0.2515
     16 H          61.7804   85.1219   14.1311 H       1  UNL1        0.2545
     17 C          63.1880   82.7683   13.6851 C.ar    1  UNL1        0.0888
     18 C          61.9003   82.3782   14.3480 C.ar    1  UNL1        0.0092
     19 C          61.3865   80.9747   14.2210 C.ar    1  UNL1        0.0209
     20 C          62.1604   79.9613   13.4309 C.ar    1  UNL1        0.0989
     21 N          63.4481   80.3515   12.7679 N.ar    1  UNL1       -0.2421
     22 C          63.9619   81.7551   12.8951 C.ar    1  UNL1        0.1049
     23 N          63.8277   87.4070   12.9846 N.pl3   1  UNL1       -0.2584
     24 H          64.7832   87.3132   12.7666 H       1  UNL1        0.2590
     25 C          62.9403   88.2517   12.1190 C.3     1  UNL1        0.2142
     26 C          63.3137   89.7013   12.0232 C.3     1  UNL1        0.0490
     27 C          62.6359   90.7924   11.2486 C.3     1  UNL1        0.0057
     28 C          61.4173   90.7033   10.3783 C.3     1  UNL1        0.0216
     29 C          60.5757   89.5012   10.0679 C.3     1  UNL1        0.0940
     30 N          60.7446   88.0912   10.5510 N.am    1  UNL1       -0.2686
     31 C          61.7970   87.5351   11.4639 C.2     1  UNL1        0.2622
     32 O          61.6922   86.0686   11.7608 O.2     1  UNL1       -0.2712
     33 C          59.7266   87.1072   10.0558 C.3     1  UNL1        0.1794
     34 C          59.7432   86.6687    8.6214 C.2     1  UNL1        0.2459
     35 O          58.5750   86.9721    7.7308 O.2     1  UNL1       -0.2730
     36 N          60.9280   85.9268    8.0775 N.am    1  UNL1       -0.2781
     37 C          62.1624   85.5538    8.8438 C.3     1  UNL1        0.0935
     38 C          63.0838   84.8241    7.9118 C.3     1  UNL1        0.0233
     39 C          62.4189   84.7462    6.5695 C.3     1  UNL1        0.0233
     40 C          61.0865   85.4277    6.6719 C.3     1  UNL1        0.0935
@<TRIPOS>BOND
     1     3     4    1
     2     4     5   ar
     3     5     6   ar
     4     6     7   ar
     5     7     8   ar
     6     8     1    1
     7     1     2    2
     8     2    13    1
     9    13    14   am
    10    14    15    2
    11    14    17    1
    12    17    18   ar
    13    18    19   ar
    14    19    20   ar
    15    20    21   ar
    16    21    22   ar
    17     2    23    1
    18    25    23    1
    19    25    26    1
    20    26    27    1
    21    27    28    1
    22    28    29    1
    23    29    30    1
    24    30    33    1
    25    33    34    1
    26    34    35    2
    27    34    36   am
    28    36    37    1
    29    37    38    1
    30    38    39    1
    31    39    40    1
    32    30    31   am
    33    31    32    2
    34     8     9   ar
    35     9    10   ar
    36    10    11   ar
    37    11    12   ar
    38    12     4   ar
    39    11     6   ar
    40    22    17   ar
    41    31    25    1
    42    40    36    1
    43    13    16    1
    44    23    24    1
@<TRIPOS>MOLECULE
*****
 40 44 0 0 0
SMALL
GASTEIGER

@<TRIPOS>ATOM
      1 N          63.4451   90.5376   11.8748 N.pl3   1  UNL1       -0.0733
      2 C          63.8074   89.9290   13.1970 C.2     1  UNL1        0.3864
      3 C          59.3169   85.9258    7.0464 C.3     1  UNL1        0.0725
      4 C          59.8584   86.9517    7.9974 C.ar    1  UNL1        0.1233
      5 C          61.2661   87.0222    8.5106 C.ar    1  UNL1        0.0361
      6 C          61.3650   88.2013    9.4325 C.ar    1  UNL1        0.0402
      7 C          62.5072   88.7606   10.2278 C.ar    1  UNL1        0.0402
      8 C          62.3028   89.9783   11.0795 C.ar    1  UNL1        0.1588
      9 C          60.9562   90.6366   11.1359 C.ar    1  UNL1        0.0402
     10 C          59.8140   90.0774   10.3407 C.ar    1  UNL1        0.0405
     11 C          60.0184   88.8597    9.4889 C.ar    1  UNL1        0.1450
     12 O          59.0873   88.0874    8.6020 O.2     1  UNL1       -0.4577
     13 N          64.9496   90.4883   13.9924 N.am    1  UNL1       -0.1702
     14 C          65.7704   91.6141   13.4364 C.2     1  UNL1        0.3093
     15 O          65.4489   92.1804   12.0851 O.2     1  UNL1       -0.2515
     16 H          65.1606   90.1166   14.8792 H       1  UNL1        0.2545
     17 C          66.9126   92.1734   14.2317 C.ar    1  UNL1        0.0888
     18 C          66.6674   92.7440   15.5971 C.ar    1  UNL1        0.0092
     19 C          67.8096   93.3033   16.3923 C.ar    1  UNL1        0.0209
     20 C          69.1971   93.2921   15.8222 C.ar    1  UNL1        0.0989
     21 N          69.4422   92.7215   14.4568 N.ar    1  UNL1       -0.2421
     22 C          68.2999   92.1621   13.6615 C.ar    1  UNL1        0.1049
     23 N          63.0275   88.7611   13.7240 N.pl3   1  UNL1       -0.2584
     24 H          62.0943   88.8825   14.0133 H       1  UNL1        0.2590
     25 C          63.6694   87.4080   13.8101 C.3     1  UNL1        0.2142
     26 C          64.7543   87.2665   14.8363 C.3     1  UNL1        0.0490
     27 C          65.5792   86.0576   15.1645 C.3     1  UNL1        0.0057
     28 C          65.5231   84.6914   14.5475 C.3     1  UNL1        0.0216
     29 C          64.6281   84.1969   13.4501 C.3     1  UNL1        0.0940
     30 N          63.5682   84.9464   12.6985 N.am    1  UNL1       -0.2686
     31 C          63.1415   86.3755   12.8587 C.2     1  UNL1        0.2622
     32 O          62.0415   86.8325   11.9470 O.2     1  UNL1       -0.2712
     33 C          62.8384   84.1633   11.6477 C.3     1  UNL1        0.1794
     34 C          63.1231   82.7014   11.4689 C.2     1  UNL1        0.2459
     35 O          63.9792   82.2381   10.3277 O.2     1  UNL1       -0.2730
     36 N          62.5517   81.7029   12.4315 N.am    1  UNL1       -0.2781
     37 C          61.6830   82.0152   13.6137 C.3     1  UNL1        0.0935
     38 C          61.3431   80.7221   14.2936 C.3     1  UNL1        0.0233
     39 C          62.0016   79.6105   13.5316 C.3     1  UNL1        0.0233
     40 C          62.7486   80.2167   12.3806 C.3     1  UNL1        0.0935
@<TRIPOS>BOND
     1     3     4    1
     2     4     5   ar
     3     5     6   ar
     4     6     7   ar
     5     7     8   ar
     6     8     1    1
     7     1     2    2
     8     2    13    1
     9    13    14   am
    10    14    15    2
    11    14    17    1
    12    17    18   ar
    13    18    19   ar
    14    19    20   ar
    15    20    21   ar
    16    21    22   ar
    17     2    23    1
    18    25    23    1
    19    25    26    1
    20    26    27    1
    21    27    28    1
    22    28    29    1
    23    29    30    1
    24    30    33    1
    25    33    34    1
    26    34    35    2
    27    34    36   am
    28    36    37    1
    29    37    38    1
    30    38    39    1
    31    39    40    1
    32    30    31   am
    33    31    32    2
    34     8     9   ar
    35     9    10   ar
    36    10    11   ar
    37    11    12   ar
    38    12     4   ar
    39    11     6   ar
    40    22    17   ar
    41    31    25    1
    42    40    36    1
    43    13    16    1
    44    23    24    1
@<TRIPOS>MOLECULE
*****
 40 44 0 0 0
SMALL
GASTEIGER

@<TRIPOS>ATOM
      1 N          61.3455   87.2674    9.0002 N.pl3   1  UNL1       -0.0733
      2 C          61.0924   88.7021    9.3573 C.2     1  UNL1        0.3864
      3 C          65.0043   81.2739   12.5094 C.3     1  UNL1        0.0725
      4 C          64.1905   82.4653   12.0990 C.ar    1  UNL1        0.1233
      5 C          64.1340   83.0632   10.7245 C.ar    1  UNL1        0.0361
      6 C          63.1990   84.2354   10.7670 C.ar    1  UNL1        0.0402
      7 C          62.7549   85.2039    9.7111 C.ar    1  UNL1        0.0402
      8 C          61.7896   86.2989   10.0561 C.ar    1  UNL1        0.1588
      9 C          61.2683   86.4254   11.4569 C.ar    1  UNL1        0.0402
     10 C          61.7123   85.4569   12.5127 C.ar    1  UNL1        0.0405
     11 C          62.6777   84.3619   12.1678 C.ar    1  UNL1        0.1450
     12 O          63.2905   83.2679   12.9910 O.2     1  UNL1       -0.4577
     13 N          60.6483   89.6707    8.3014 N.am    1  UNL1       -0.1702
     14 C          59.7260   89.2179    7.2085 C.2     1  UNL1        0.3093
     15 O          59.2479   87.7966    7.1714 O.2     1  UNL1       -0.2515
     16 H          60.9621   90.6035    8.3258 H       1  UNL1        0.2545
     17 C          59.2819   90.1864    6.1527 C.ar    1  UNL1        0.0888
     18 C          57.8210   90.4638    5.9562 C.ar    1  UNL1        0.0092
     19 C          57.3769   91.4323    4.9003 C.ar    1  UNL1        0.0209
     20 C          58.3938   92.1234    4.0409 C.ar    1  UNL1        0.0989
     21 N          59.8547   91.8459    4.2374 N.ar    1  UNL1       -0.2421
     22 C          60.2988   90.8773    5.2933 C.ar    1  UNL1        0.1049
     23 N          61.2833   89.1683   10.7701 N.pl3   1  UNL1       -0.2584
     24 H          60.6373   88.9080   11.4659 H       1  UNL1        0.2590
     25 C          62.4585   90.0312   11.1228 C.3     1  UNL1        0.2142
     26 C          62.7769   91.1269   10.1492 C.3     1  UNL1        0.0490
     27 C          63.8753   92.1463   10.2146 C.3     1  UNL1        0.0057
     28 C          64.9267   92.3217   11.2701 C.3     1  UNL1        0.0216
     29 C          65.1393   91.5212   12.5206 C.3     1  UNL1        0.0940
     30 N          64.3530   90.3474   13.0246 N.am    1  UNL1       -0.2686
     31 C          63.1599   89.6842   12.4025 C.2     1  UNL1        0.2622
     32 O          62.5934   88.5203   13.1603 O.2     1  UNL1       -0.2712
     33 C          64.8217   89.7588   14.3222 C.3     1  UNL1        0.1794
     34 C          63.8779   89.6565   15.4836 C.2     1  UNL1        0.2459
     35 O          63.2384   90.8932   16.0416 O.2     1  UNL1       -0.2730
     36 N          63.5736   88.3173   16.0870 N.am    1  UNL1       -0.2781
     37 C          64.1342   87.0003   15.6385 C.3     1  UNL1        0.0935
     38 C          63.5623   85.9291   16.5191 C.3     1  UNL1        0.0233
     39 C          62.6482   86.5840   17.5118 C.3     1  UNL1        0.0233
     40 C          62.6551   88.0601   17.2448 C.3     1  UNL1        0.0935
@<TRIPOS>BOND
     1     3     4    1
     2     4     5   ar
     3     5     6   ar
     4     6     7   ar
     5     7     8   ar
     6     8     1    1
     7     1     2    2
     8     2    13    1
     9    13    14   am
    10    14    15    2
    11    14    17    1
    12    17    18   ar
    13    18    19   ar
    14    19    20   ar
    15    20    21   ar
    16    21    22   ar
    17     2    23    1
    18    25    23    1
    19    25    26    1
    20    26    27    1
    21    27    28    1
    22    28    29    1
    23    29    30    1
    24    30    33    1
    25    33    34    1
    26    34    35    2
    27    34    36   am
    28    36    37    1
    29    37    38    1
    30    38    39    1
    31    39    40    1
    32    30    31   am
    33    31    32    2
    34     8     9   ar
    35     9    10   ar
    36    10    11   ar
    37    11    12   ar
    38    12     4   ar
    39    11     6   ar
    40    22    17   ar
    41    31    25    1
    42    40    36    1
    43    13    16    1
    44    23    24    1
