@<TRIPOS>MOLECULE
*****
 27 30 0 0 0
SMALL
GASTEIGER

@<TRIPOS>ATOM
      1 O          63.5820   91.0940   17.0072 O.2     1  UNL1       -0.2699
      2 C          64.0394   90.4755   15.7195 C.2     1  UNL1        0.2490
      3 N          63.8563   89.0050   15.4871 N.am    1  UNL1       -0.2758
      4 C          63.2157   88.1530   16.5424 C.3     1  UNL1        0.0973
      5 C          63.0326   86.6825   16.3100 C.3     1  UNL1        0.0616
      6 C          63.4900   86.0640   15.0223 C.3     1  UNL1        0.1367
      7 C          62.8495   85.2119   16.0776 C.3     1  UNL1        0.0449
      8 C          62.6664   83.7414   15.8452 C.3     1  UNL1        0.0330
      9 C          63.1238   83.1229   14.5575 C.ar    1  UNL1        0.0119
     10 C          62.9407   81.6523   14.3251 C.ar    1  UNL1       -0.0013
     11 C          63.3981   81.0338   13.0374 C.ar    1  UNL1       -0.0001
     12 C          64.0387   81.8859   11.9821 C.ar    1  UNL1        0.0031
     13 C          64.2218   83.3564   12.2145 C.ar    1  UNL1        0.0366
     14 C          63.7644   83.9749   13.5022 C.ar    1  UNL1        0.1342
     15 O          63.9475   85.4455   13.7346 O.3     1  UNL1       -0.4828
     16 C          64.1306   86.9160   13.9670 C.3     1  UNL1        0.0616
     17 C          64.3137   88.3865   14.1994 C.3     1  UNL1        0.0973
     18 C          64.6799   91.3275   14.6641 C.ar    1  UNL1        0.0536
     19 C          65.8988   92.1379   14.9922 C.ar    1  UNL1        0.0045
     20 C          66.5394   92.9899   13.9368 C.ar    1  UNL1        0.0040
     21 C          65.9610   93.0316   12.5534 C.ar    1  UNL1        0.0714
     22 C          64.7421   92.2212   12.2254 C.ar    1  UNL1        0.0040
     23 C          64.1016   91.3692   13.2807 C.ar    1  UNL1        0.0045
     24 C          66.6016   93.8836   11.4981 C.3     1  UNL1        0.4186
     25 F          67.2422   94.7356   10.4427 F       1  UNL1       -0.1659
     26 F          66.3081   95.1101   12.3102 F       1  UNL1       -0.1659
     27 F          66.8951   92.6571   10.6860 F       1  UNL1       -0.1659
@<TRIPOS>BOND
     1     1     2    2
     2     2    18    1
     3    18    19   ar
     4    19    20   ar
     5    20    21   ar
     6    21    24    1
     7    24    25    1
     8    24    26    1
     9    24    27    1
    10    21    22   ar
    11    22    23   ar
    12     2     3   am
    13     3     4    1
    14     4     5    1
    15     5     6    1
    16     6     7    1
    17     7     8    1
    18     8     9    1
    19     9    10   ar
    20    10    11   ar
    21    11    12   ar
    22    12    13   ar
    23    13    14   ar
    24    14    15    1
    25     6    16    1
    26    16    17    1
    27    23    18   ar
    28    17     3    1
    29    15     6    1
    30    14     9   ar
@<TRIPOS>MOLECULE
*****
 27 30 0 0 0
SMALL
GASTEIGER

@<TRIPOS>ATOM
      1 O          63.5510   89.5233   16.9982 O.2     1  UNL1       -0.2699
      2 C          63.8133   89.1170   15.5783 C.2     1  UNL1        0.2490
      3 N          63.6117   87.6916   15.1567 N.am    1  UNL1       -0.2758
      4 C          63.1478   86.6727   16.1549 C.3     1  UNL1        0.0973
      5 C          62.9461   85.2474   15.7332 C.3     1  UNL1        0.0616
      6 C          63.2085   84.8410   14.3133 C.3     1  UNL1        0.1367
      7 C          62.7445   83.8220   15.3116 C.3     1  UNL1        0.0449
      8 C          62.5429   82.3967   14.8899 C.3     1  UNL1        0.0330
      9 C          62.8052   81.9904   13.4700 C.ar    1  UNL1        0.0119
     10 C          62.6036   80.5650   13.0484 C.ar    1  UNL1       -0.0013
     11 C          62.8659   80.1586   11.6285 C.ar    1  UNL1       -0.0001
     12 C          63.3298   81.1776   10.6303 C.ar    1  UNL1        0.0031
     13 C          63.5315   82.6029   11.0519 C.ar    1  UNL1        0.0366
     14 C          63.2691   83.0093   12.4718 C.ar    1  UNL1        0.1342
     15 O          63.4708   84.4347   12.8934 O.3     1  UNL1       -0.4828
     16 C          63.6724   85.8600   13.3151 C.3     1  UNL1        0.0616
     17 C          63.8740   87.2852   13.7368 C.3     1  UNL1        0.0973
     18 C          64.2773   90.1359   14.5801 C.ar    1  UNL1        0.0536
     19 C          63.4266   90.4592   13.3877 C.ar    1  UNL1        0.0045
     20 C          63.8906   91.4782   12.3894 C.ar    1  UNL1        0.0040
     21 C          65.2052   92.1739   12.5836 C.ar    1  UNL1        0.0714
     22 C          66.0559   91.8506   13.7760 C.ar    1  UNL1        0.0040
     23 C          65.5920   90.8316   14.7742 C.ar    1  UNL1        0.0045
     24 C          65.6692   93.1928   11.5854 C.3     1  UNL1        0.4186
     25 F          66.1332   94.2118   10.5872 F       1  UNL1       -0.1659
     26 F          65.2841   92.2716   10.4661 F       1  UNL1       -0.1659
     27 F          66.0543   94.1140   12.7048 F       1  UNL1       -0.1659
@<TRIPOS>BOND
     1     1     2    2
     2     2    18    1
     3    18    19   ar
     4    19    20   ar
     5    20    21   ar
     6    21    24    1
     7    24    25    1
     8    24    26    1
     9    24    27    1
    10    21    22   ar
    11    22    23   ar
    12     2     3   am
    13     3     4    1
    14     4     5    1
    15     5     6    1
    16     6     7    1
    17     7     8    1
    18     8     9    1
    19     9    10   ar
    20    10    11   ar
    21    11    12   ar
    22    12    13   ar
    23    13    14   ar
    24    14    15    1
    25     6    16    1
    26    16    17    1
    27    23    18   ar
    28    17     3    1
    29    15     6    1
    30    14     9   ar
@<TRIPOS>MOLECULE
*****
 27 30 0 0 0
SMALL
GASTEIGER

@<TRIPOS>ATOM
      1 O          62.5098   91.2185   10.9451 O.2     1  UNL1       -0.2699
      2 C          63.2921   90.4107   11.9378 C.2     1  UNL1        0.2490
      3 N          63.1337   88.9197   11.9827 N.am    1  UNL1       -0.2758
      4 C          62.1930   88.2366   11.0349 C.3     1  UNL1        0.0973
      5 C          62.0346   86.7457   11.0798 C.3     1  UNL1        0.0616
      6 C          62.8169   85.9379   12.0726 C.3     1  UNL1        0.1367
      7 C          61.8762   85.2547   11.1247 C.3     1  UNL1        0.0449
      8 C          61.7178   83.7638   11.1696 C.3     1  UNL1        0.0330
      9 C          62.5002   82.9560   12.1624 C.ar    1  UNL1        0.0119
     10 C          62.3417   81.4650   12.2073 C.ar    1  UNL1       -0.0013
     11 C          63.1241   80.6573   13.2000 C.ar    1  UNL1       -0.0001
     12 C          64.0648   81.3405   14.1479 C.ar    1  UNL1        0.0031
     13 C          64.2231   82.8314   14.1029 C.ar    1  UNL1        0.0366
     14 C          63.4408   83.6392   13.1102 C.ar    1  UNL1        0.1342
     15 O          63.5992   85.1302   13.0653 O.3     1  UNL1       -0.4828
     16 C          63.7576   86.6211   13.0204 C.3     1  UNL1        0.0616
     17 C          63.9160   88.1120   12.9754 C.3     1  UNL1        0.0973
     18 C          64.2327   91.0939   12.8856 C.ar    1  UNL1        0.0536
     19 C          64.1103   90.8605   14.3623 C.ar    1  UNL1        0.0045
     20 C          65.0510   91.5437   15.3101 C.ar    1  UNL1        0.0040
     21 C          66.1142   92.4602   14.7812 C.ar    1  UNL1        0.0714
     22 C          66.2366   92.6936   13.3046 C.ar    1  UNL1        0.0040
     23 C          65.2959   92.0104   12.3568 C.ar    1  UNL1        0.0045
     24 C          67.0548   93.1434   15.7290 C.3     1  UNL1        0.4186
     25 F          67.9956   93.8266   16.6769 F       1  UNL1       -0.1659
     26 F          66.1779   92.7522   16.8814 F       1  UNL1       -0.1659
     27 F          67.9318   93.5345   14.5767 F       1  UNL1       -0.1659
@<TRIPOS>BOND
     1     1     2    2
     2     2    18    1
     3    18    19   ar
     4    19    20   ar
     5    20    21   ar
     6    21    24    1
     7    24    25    1
     8    24    26    1
     9    24    27    1
    10    21    22   ar
    11    22    23   ar
    12     2     3   am
    13     3     4    1
    14     4     5    1
    15     5     6    1
    16     6     7    1
    17     7     8    1
    18     8     9    1
    19     9    10   ar
    20    10    11   ar
    21    11    12   ar
    22    12    13   ar
    23    13    14   ar
    24    14    15    1
    25     6    16    1
    26    16    17    1
    27    23    18   ar
    28    17     3    1
    29    15     6    1
    30    14     9   ar
@<TRIPOS>MOLECULE
*****
 27 30 0 0 0
SMALL
GASTEIGER

@<TRIPOS>ATOM
      1 O          57.1137   90.3297    6.3034 O.2     1  UNL1       -0.2699
      2 C          58.5998   90.1750    6.1704 C.2     1  UNL1        0.2490
      3 N          59.3442   90.9518    5.1252 N.am    1  UNL1       -0.2758
      4 C          58.6025   91.8833    4.2129 C.3     1  UNL1        0.0973
      5 C          59.3469   92.6601    3.1678 C.3     1  UNL1        0.0616
      6 C          60.8330   92.5053    3.0348 C.3     1  UNL1        0.1367
      7 C          60.0913   93.4369    2.1225 C.3     1  UNL1        0.0449
      8 C          60.8357   94.2137    1.0773 C.3     1  UNL1        0.0330
      9 C          62.3217   94.0590    0.9444 C.ar    1  UNL1        0.0119
     10 C          63.0661   94.8358   -0.1009 C.ar    1  UNL1       -0.0013
     11 C          64.5522   94.6811   -0.2338 C.ar    1  UNL1       -0.0001
     12 C          65.2939   93.7495    0.6785 C.ar    1  UNL1        0.0031
     13 C          64.5495   92.9728    1.7236 C.ar    1  UNL1        0.0366
     14 C          63.0634   93.1275    1.8566 C.ar    1  UNL1        0.1342
     15 O          62.3190   92.3506    2.9019 O.3     1  UNL1       -0.4828
     16 C          61.5746   91.5739    3.9470 C.3     1  UNL1        0.0616
     17 C          60.8302   90.7971    4.9922 C.3     1  UNL1        0.0973
     18 C          59.3414   89.2435    7.0826 C.ar    1  UNL1        0.0536
     19 C          59.3302   87.7671    6.8175 C.ar    1  UNL1        0.0045
     20 C          60.0719   86.8356    7.7298 C.ar    1  UNL1        0.0040
     21 C          60.8248   87.3805    8.9072 C.ar    1  UNL1        0.0714
     22 C          60.8361   88.8568    9.1723 C.ar    1  UNL1        0.0040
     23 C          60.0944   89.7883    8.2601 C.ar    1  UNL1        0.0045
     24 C          61.5665   86.4490    9.8194 C.3     1  UNL1        0.4186
     25 F          62.3082   85.5174   10.7317 F       1  UNL1       -0.1659
     26 F          62.6066   86.2389    8.7592 F       1  UNL1       -0.1659
     27 F          60.5264   86.6590   10.8795 F       1  UNL1       -0.1659
@<TRIPOS>BOND
     1     1     2    2
     2     2    18    1
     3    18    19   ar
     4    19    20   ar
     5    20    21   ar
     6    21    24    1
     7    24    25    1
     8    24    26    1
     9    24    27    1
    10    21    22   ar
    11    22    23   ar
    12     2     3   am
    13     3     4    1
    14     4     5    1
    15     5     6    1
    16     6     7    1
    17     7     8    1
    18     8     9    1
    19     9    10   ar
    20    10    11   ar
    21    11    12   ar
    22    12    13   ar
    23    13    14   ar
    24    14    15    1
    25     6    16    1
    26    16    17    1
    27    23    18   ar
    28    17     3    1
    29    15     6    1
    30    14     9   ar
@<TRIPOS>MOLECULE
*****
 27 30 0 0 0
SMALL
GASTEIGER

@<TRIPOS>ATOM
      1 O          60.9988   86.9397   10.3158 O.2     1  UNL1       -0.2699
      2 C          62.0078   86.7669   11.4121 C.2     1  UNL1        0.2490
      3 N          62.7908   87.9481   11.9039 N.am    1  UNL1       -0.2758
      4 C          62.5647   89.3021   11.2992 C.3     1  UNL1        0.0973
      5 C          63.3477   90.4832   11.7910 C.3     1  UNL1        0.0616
      6 C          64.3567   90.3104   12.8873 C.3     1  UNL1        0.1367
      7 C          64.1306   91.6645   12.2827 C.3     1  UNL1        0.0449
      8 C          64.9136   92.8456   12.7744 C.3     1  UNL1        0.0330
      9 C          65.9226   92.6728   13.8708 C.ar    1  UNL1        0.0119
     10 C          66.7056   93.8540   14.3625 C.ar    1  UNL1       -0.0013
     11 C          67.7146   93.6812   15.4588 C.ar    1  UNL1       -0.0001
     12 C          67.9407   92.3271   16.0635 C.ar    1  UNL1        0.0031
     13 C          67.1577   91.1460   15.5717 C.ar    1  UNL1        0.0366
     14 C          66.1487   91.3188   14.4754 C.ar    1  UNL1        0.1342
     15 O          65.3657   90.1376   13.9837 O.3     1  UNL1       -0.4828
     16 C          64.5828   88.9564   13.4919 C.3     1  UNL1        0.0616
     17 C          63.7998   87.7753   13.0002 C.3     1  UNL1        0.0973
     18 C          62.2339   85.4129   12.0167 C.ar    1  UNL1        0.0536
     19 C          62.5290   84.2369   11.1336 C.ar    1  UNL1        0.0045
     20 C          62.7551   82.8829   11.7383 C.ar    1  UNL1        0.0040
     21 C          62.6861   82.7049   13.2261 C.ar    1  UNL1        0.0714
     22 C          62.3911   83.8809   14.1092 C.ar    1  UNL1        0.0040
     23 C          62.1650   85.2349   13.5046 C.ar    1  UNL1        0.0045
     24 C          62.9122   81.3509   13.8307 C.3     1  UNL1        0.4186
     25 F          63.1383   79.9969   14.4354 F       1  UNL1       -0.1659
     26 F          64.2378   81.2614   13.1345 F       1  UNL1       -0.1659
     27 F          61.5866   81.4405   14.5269 F       1  UNL1       -0.1659
@<TRIPOS>BOND
     1     1     2    2
     2     2    18    1
     3    18    19   ar
     4    19    20   ar
     5    20    21   ar
     6    21    24    1
     7    24    25    1
     8    24    26    1
     9    24    27    1
    10    21    22   ar
    11    22    23   ar
    12     2     3   am
    13     3     4    1
    14     4     5    1
    15     5     6    1
    16     6     7    1
    17     7     8    1
    18     8     9    1
    19     9    10   ar
    20    10    11   ar
    21    11    12   ar
    22    12    13   ar
    23    13    14   ar
    24    14    15    1
    25     6    16    1
    26    16    17    1
    27    23    18   ar
    28    17     3    1
    29    15     6    1
    30    14     9   ar
@<TRIPOS>MOLECULE
*****
 27 30 0 0 0
SMALL
GASTEIGER

@<TRIPOS>ATOM
      1 O          59.5962   96.8560    1.5941 O.2     1  UNL1       -0.2699
      2 C          59.7596   95.5590    0.8585 C.2     1  UNL1        0.2490
      3 N          59.0146   95.3241   -0.4221 N.am    1  UNL1       -0.2758
      4 C          58.1061   96.3861   -0.9669 C.3     1  UNL1        0.0973
      5 C          57.3611   96.1511   -2.2474 C.3     1  UNL1        0.0616
      6 C          57.5245   94.8542   -2.9831 C.3     1  UNL1        0.1367
      7 C          56.6160   95.9162   -3.5280 C.3     1  UNL1        0.0449
      8 C          55.8710   95.6812   -4.8085 C.3     1  UNL1        0.0330
      9 C          56.0345   94.3842   -5.5441 C.ar    1  UNL1        0.0119
     10 C          55.2894   94.1493   -6.8247 C.ar    1  UNL1       -0.0013
     11 C          55.4528   92.8523   -7.5603 C.ar    1  UNL1       -0.0001
     12 C          56.3613   91.7903   -7.0154 C.ar    1  UNL1        0.0031
     13 C          57.1063   92.0253   -5.7350 C.ar    1  UNL1        0.0366
     14 C          56.9429   93.3223   -4.9993 C.ar    1  UNL1        0.1342
     15 O          57.6880   93.5572   -3.7187 O.3     1  UNL1       -0.4828
     16 C          58.4330   93.7922   -2.4383 C.3     1  UNL1        0.0616
     17 C          59.1780   94.0271   -1.1578 C.3     1  UNL1        0.0973
     18 C          60.6681   94.4970    1.4033 C.ar    1  UNL1        0.0536
     19 C          60.1350   93.4732    2.3612 C.ar    1  UNL1        0.0045
     20 C          61.0436   92.4112    2.9061 C.ar    1  UNL1        0.0040
     21 C          62.4850   92.3730    2.4930 C.ar    1  UNL1        0.0714
     22 C          63.0180   93.3968    1.5350 C.ar    1  UNL1        0.0040
     23 C          62.1096   94.4588    0.9902 C.ar    1  UNL1        0.0045
     24 C          63.3934   91.3110    3.0378 C.3     1  UNL1        0.4186
     25 F          64.3020   90.2490    3.5826 F       1  UNL1       -0.1659
     26 F          62.3330   90.9073    4.0188 F       1  UNL1       -0.1659
     27 F          64.4538   91.7148    2.0568 F       1  UNL1       -0.1659
@<TRIPOS>BOND
     1     1     2    2
     2     2    18    1
     3    18    19   ar
     4    19    20   ar
     5    20    21   ar
     6    21    24    1
     7    24    25    1
     8    24    26    1
     9    24    27    1
    10    21    22   ar
    11    22    23   ar
    12     2     3   am
    13     3     4    1
    14     4     5    1
    15     5     6    1
    16     6     7    1
    17     7     8    1
    18     8     9    1
    19     9    10   ar
    20    10    11   ar
    21    11    12   ar
    22    12    13   ar
    23    13    14   ar
    24    14    15    1
    25     6    16    1
    26    16    17    1
    27    23    18   ar
    28    17     3    1
    29    15     6    1
    30    14     9   ar
