@<TRIPOS>MOLECULE
*****
 34 39 0 0 0
SMALL
GASTEIGER

@<TRIPOS>ATOM
      1 N          60.5895   88.2772    8.9005 N.pl3   1  UNL1       -0.2932
      2 C          60.3577   86.7982    8.9942 C.3     1  UNL1        0.0925
      3 C          61.0240   86.0018   10.0766 C.3     1  UNL1        0.0259
      4 C          61.9221   86.6843   11.0653 C.3     1  UNL1        0.0256
      5 C          61.9320   85.2387   11.4653 C.2     1  UNL1       -0.0304
      6 C          62.8645   85.5579   12.5961 C.2     1  UNL1       -0.0219
      7 C          62.8546   87.0035   12.1961 C.3     1  UNL1        0.0303
      8 C          62.1539   88.1633   10.9716 C.3     1  UNL1        0.0259
      9 C          61.4876   88.9597    9.8892 C.3     1  UNL1        0.0925
     10 C          58.5904   90.6667    5.6532 C.ar    1  UNL1        0.0332
     11 C          60.0479   90.8693    5.9444 C.ar    1  UNL1        0.0055
     12 C          60.7142   90.0727    7.0268 C.ar    1  UNL1        0.0344
     13 C          59.9231   89.0737    7.8180 C.ar    1  UNL1        0.1317
     14 N          58.4656   88.8711    7.5269 N.ar    1  UNL1       -0.2291
     15 C          57.7993   89.6676    6.4445 C.ar    1  UNL1        0.1014
     16 O          56.4310   91.6067    4.5563 O.co2   1  UNL1       -0.5445
     17 C          57.9240   91.4632    4.5709 C.2     1  UNL1        0.0744
     18 O          58.7507   92.1161    3.5031 O.co2   1  UNL1       -0.5445
     19 C          63.5308   84.7614   13.6785 C.ar    1  UNL1        0.0495
     20 C          63.8474   83.2962   13.6273 C.ar    1  UNL1        0.1238
     21 N          64.5098   82.9196   14.9193 N.ar    1  UNL1       -0.0773
     22 O          64.6027   84.1521   15.7691 O.2     1  UNL1       -0.3578
     23 C          63.9976   85.2905   15.0022 C.ar    1  UNL1        0.1535
     24 C          63.5532   82.3700   12.4846 C.ar    1  UNL1        0.0420
     25 C          64.1590   82.6261   11.1364 C.ar    1  UNL1        0.0600
     26 CL         65.0590   83.8083   10.9310 Cl      1  UNL1       -0.0822
     27 C          63.8648   81.6999    9.9938 C.ar    1  UNL1        0.0115
     28 C          62.9647   80.5176   10.1993 C.ar    1  UNL1        0.0017
     29 C          62.3589   80.2616   11.5474 C.ar    1  UNL1        0.0115
     30 C          62.6531   81.1878   12.6901 C.ar    1  UNL1        0.0600
     31 CL         62.0473   80.9317   14.0381 Cl      1  UNL1       -0.0822
     32 C          63.8800   86.7089   15.4759 C.3     1  UNL1        0.0602
     33 C          64.1557   88.1705   15.2816 C.3     1  UNL1        0.0081
     34 C          63.4006   87.7040   16.4908 C.3     1  UNL1        0.0081
@<TRIPOS>UNITY_ATOM_ATTR
16 1
charge -1
@<TRIPOS>BOND
     1    16    17   ar
     2    17    18   ar
     3    17    10    1
     4    10    11   ar
     5    11    12   ar
     6    12    13   ar
     7    13     1    1
     8     1     2    1
     9     2     3    1
    10     3     4    1
    11     4     5    1
    12     5     6    2
    13     6    19    1
    14    19    20   ar
    15    20    24    1
    16    24    25   ar
    17    25    26    1
    18    25    27   ar
    19    27    28   ar
    20    28    29   ar
    21    29    30   ar
    22    30    31    1
    23    20    21   ar
    24    21    22   ar
    25    22    23   ar
    26    23    32    1
    27    32    33    1
    28    33    34    1
    29     6     7    1
    30     4     8    1
    31     8     9    1
    32    13    14   ar
    33    14    15   ar
    34    15    10   ar
    35     9     1    1
    36     7     4    1
    37    23    19   ar
    38    34    32    1
    39    30    24   ar
@<TRIPOS>MOLECULE
*****
 34 39 0 0 0
SMALL
GASTEIGER

@<TRIPOS>ATOM
      1 N          60.6532   88.2613    8.9115 N.pl3   1  UNL1       -0.2932
      2 C          61.5744   88.9307    9.8877 C.3     1  UNL1        0.0925
      3 C          62.2231   88.1296   10.9773 C.3     1  UNL1        0.0259
      4 C          61.9506   86.6589   11.0906 C.3     1  UNL1        0.0256
      5 C          62.8967   86.9660   12.2134 C.2     1  UNL1       -0.0304
      6 C          62.8681   85.5258   12.6316 C.2     1  UNL1       -0.0219
      7 C          61.9220   85.2186   11.5088 C.3     1  UNL1        0.0303
      8 C          61.0294   85.9894   10.1144 C.3     1  UNL1        0.0259
      9 C          60.3807   86.7906    9.0248 C.3     1  UNL1        0.0925
     10 C          58.7069   90.6648    5.6426 C.ar    1  UNL1        0.0332
     11 C          57.9309   89.5929    6.3489 C.ar    1  UNL1        0.0055
     12 C          58.5797   88.7917    7.4385 C.ar    1  UNL1        0.0344
     13 C          60.0044   89.0624    7.8218 C.ar    1  UNL1        0.1317
     14 N          60.7804   90.1343    7.1155 N.ar    1  UNL1       -0.2291
     15 C          60.1317   90.9355    6.0259 C.ar    1  UNL1        0.1014
     16 O          56.5627   91.5200    4.4506 O.co2   1  UNL1       -0.5445
     17 C          58.0582   91.4660    4.5530 C.2     1  UNL1        0.0744
     18 O          58.9050   92.2131    3.5658 O.co2   1  UNL1       -0.5445
     19 C          63.5168   84.7246   13.7212 C.ar    1  UNL1        0.0495
     20 C          63.8299   83.2586   13.6705 C.ar    1  UNL1        0.1238
     21 N          64.4730   82.8767   14.9707 N.ar    1  UNL1       -0.0773
     22 O          64.5573   84.1067   15.8250 O.2     1  UNL1       -0.3578
     23 C          63.9663   85.2488   15.0527 C.ar    1  UNL1        0.1535
     24 C          63.5493   82.3363   12.5213 C.ar    1  UNL1        0.0420
     25 C          62.6556   81.1472   12.7149 C.ar    1  UNL1        0.0600
     26 CL         62.0426   80.8804   14.0577 Cl      1  UNL1       -0.0822
     27 C          62.3749   80.2249   11.5657 C.ar    1  UNL1        0.0115
     28 C          62.9880   80.4917   10.2229 C.ar    1  UNL1        0.0017
     29 C          63.8816   81.6807   10.0294 C.ar    1  UNL1        0.0115
     30 C          64.1623   82.6030   11.1786 C.ar    1  UNL1        0.0600
     31 CL         65.0559   83.7921   10.9849 Cl      1  UNL1       -0.0822
     32 C          63.8461   86.6664   15.5285 C.3     1  UNL1        0.0602
     33 C          64.1213   88.1285   15.3376 C.3     1  UNL1        0.0081
     34 C          63.3625   87.6593   16.5435 C.3     1  UNL1        0.0081
@<TRIPOS>UNITY_ATOM_ATTR
16 1
charge -1
@<TRIPOS>BOND
     1    16    17   ar
     2    17    18   ar
     3    17    10    1
     4    10    11   ar
     5    11    12   ar
     6    12    13   ar
     7    13     1    1
     8     1     2    1
     9     2     3    1
    10     3     4    1
    11     4     5    1
    12     5     6    2
    13     6    19    1
    14    19    20   ar
    15    20    24    1
    16    24    25   ar
    17    25    26    1
    18    25    27   ar
    19    27    28   ar
    20    28    29   ar
    21    29    30   ar
    22    30    31    1
    23    20    21   ar
    24    21    22   ar
    25    22    23   ar
    26    23    32    1
    27    32    33    1
    28    33    34    1
    29     6     7    1
    30     4     8    1
    31     8     9    1
    32    13    14   ar
    33    14    15   ar
    34    15    10   ar
    35     9     1    1
    36     7     4    1
    37    23    19   ar
    38    34    32    1
    39    30    24   ar
@<TRIPOS>MOLECULE
*****
 34 39 0 0 0
SMALL
GASTEIGER

@<TRIPOS>ATOM
      1 N          60.2286   90.7883    5.5496 N.pl3   1  UNL1       -0.2932
      2 C          58.9863   91.4756    5.0657 C.3     1  UNL1        0.0925
      3 C          59.0190   92.2806    3.8005 C.3     1  UNL1        0.0259
      4 C          60.2940   92.3983    3.0192 C.3     1  UNL1        0.0256
      5 C          59.2894   93.2001    2.2459 C.2     1  UNL1       -0.0304
      6 C          60.3402   93.5368    1.2297 C.2     1  UNL1       -0.0219
      7 C          61.3448   92.7350    2.0030 C.3     1  UNL1        0.0303
      8 C          61.5363   91.7110    3.5030 C.3     1  UNL1        0.0259
      9 C          61.5036   90.9060    4.7683 C.3     1  UNL1        0.0925
     10 C          60.1307   88.3732    9.3454 C.ar    1  UNL1        0.0332
     11 C          59.3063   87.9501    8.1659 C.ar    1  UNL1        0.0055
     12 C          59.3390   88.7552    6.9006 C.ar    1  UNL1        0.0344
     13 C          60.1960   89.9832    6.8149 C.ar    1  UNL1        0.1317
     14 N          61.0204   90.4063    7.9945 N.ar    1  UNL1       -0.2291
     15 C          60.9878   89.6013    9.2597 C.ar    1  UNL1        0.1014
     16 O          59.3938   88.1033   11.8221 O.co2   1  UNL1       -0.5445
     17 C          60.0981   87.5682   10.6107 C.2     1  UNL1        0.0744
     18 O          60.7699   86.2282   10.6645 O.co2   1  UNL1       -0.5445
     19 C          60.3729   94.3418   -0.0355 C.ar    1  UNL1        0.0495
     20 C          61.4787   95.2575   -0.4696 C.ar    1  UNL1        0.1238
     21 N          61.0947   95.8541   -1.7911 N.ar    1  UNL1       -0.0773
     22 O          59.7515   95.3071   -2.1739 O.2     1  UNL1       -0.3578
     23 C          59.3054   94.3724   -1.0888 C.ar    1  UNL1        0.1535
     24 C          62.7461   95.5290    0.2854 C.ar    1  UNL1        0.0420
     25 C          64.0534   95.0042   -0.2301 C.ar    1  UNL1        0.0600
     26 CL         64.0932   94.2080   -1.5007 Cl      1  UNL1       -0.0822
     27 C          65.3208   95.2758    0.5248 C.ar    1  UNL1        0.0115
     28 C          65.2809   96.0721    1.7954 C.ar    1  UNL1        0.0017
     29 C          63.9737   96.5968    2.3110 C.ar    1  UNL1        0.0115
     30 C          62.7063   96.3253    1.5560 C.ar    1  UNL1        0.0600
     31 CL         61.3991   96.8501    2.0716 Cl      1  UNL1       -0.0822
     32 C          58.0177   93.6034   -1.0618 C.3     1  UNL1        0.0602
     33 C          57.2674   92.3357   -0.7788 C.3     1  UNL1        0.0081
     34 C          56.5379   93.5390   -1.2982 C.3     1  UNL1        0.0081
@<TRIPOS>UNITY_ATOM_ATTR
16 1
charge -1
@<TRIPOS>BOND
     1    16    17   ar
     2    17    18   ar
     3    17    10    1
     4    10    11   ar
     5    11    12   ar
     6    12    13   ar
     7    13     1    1
     8     1     2    1
     9     2     3    1
    10     3     4    1
    11     4     5    1
    12     5     6    2
    13     6    19    1
    14    19    20   ar
    15    20    24    1
    16    24    25   ar
    17    25    26    1
    18    25    27   ar
    19    27    28   ar
    20    28    29   ar
    21    29    30   ar
    22    30    31    1
    23    20    21   ar
    24    21    22   ar
    25    22    23   ar
    26    23    32    1
    27    32    33    1
    28    33    34    1
    29     6     7    1
    30     4     8    1
    31     8     9    1
    32    13    14   ar
    33    14    15   ar
    34    15    10   ar
    35     9     1    1
    36     7     4    1
    37    23    19   ar
    38    34    32    1
    39    30    24   ar
@<TRIPOS>MOLECULE
*****
 34 39 0 0 0
SMALL
GASTEIGER

@<TRIPOS>ATOM
      1 N          60.4417   87.9068    8.9282 N.pl3   1  UNL1       -0.2932
      2 C          61.3234   86.7678    8.5098 C.3     1  UNL1        0.0925
      3 C          61.9535   85.8868    9.5475 C.3     1  UNL1        0.0259
      4 C          61.7017   86.1448   11.0035 C.3     1  UNL1        0.0256
      5 C          62.6100   84.9514   10.9720 C.2     1  UNL1       -0.0304
      6 C          62.5928   84.8987   12.4710 C.2     1  UNL1       -0.0219
      7 C          61.6845   86.0920   12.5025 C.3     1  UNL1        0.0303
      8 C          60.8200   87.2838   11.4219 C.3     1  UNL1        0.0259
      9 C          60.1899   88.1648   10.3842 C.3     1  UNL1        0.0925
     10 C          58.5514   90.5501    5.8152 C.ar    1  UNL1        0.0332
     11 C          59.9554   90.8152    6.2720 C.ar    1  UNL1        0.0055
     12 C          60.5854   89.9341    7.3097 C.ar    1  UNL1        0.0344
     13 C          59.8116   88.7879    7.8905 C.ar    1  UNL1        0.1317
     14 N          58.4077   88.5228    7.4337 N.ar    1  UNL1       -0.2291
     15 C          57.7776   89.4038    6.3961 C.ar    1  UNL1        0.1014
     16 O          56.4313   91.6001    4.7417 O.co2   1  UNL1       -0.5445
     17 C          57.9213   91.4311    4.7776 C.2     1  UNL1        0.0744
     18 O          58.7813   92.1432    3.7758 O.co2   1  UNL1       -0.5445
     19 C          63.2228   84.0176   13.5087 C.ar    1  UNL1        0.0495
     20 C          63.6583   84.4427   14.8797 C.ar    1  UNL1        0.1238
     21 N          64.2326   83.2446   15.5759 N.ar    1  UNL1       -0.0773
     22 O          64.1521   82.0791   14.6351 O.2     1  UNL1       -0.3578
     23 C          63.5280   82.5568   13.3576 C.ar    1  UNL1        0.1535
     24 C          63.5402   85.8234   15.4537 C.ar    1  UNL1        0.0420
     25 C          64.1716   86.9862   14.7469 C.ar    1  UNL1        0.0600
     26 CL         64.9211   86.7680   13.4661 Cl      1  UNL1       -0.0822
     27 C          64.0535   88.3669   15.3210 C.ar    1  UNL1        0.0115
     28 C          63.3040   88.5850   16.6019 C.ar    1  UNL1        0.0017
     29 C          62.6726   87.4223   17.3086 C.ar    1  UNL1        0.0115
     30 C          62.7907   86.0416   16.7346 C.ar    1  UNL1        0.0600
     31 CL         62.1592   84.8790   17.4414 Cl      1  UNL1       -0.0822
     32 C          63.2567   81.7205   12.1421 C.3     1  UNL1        0.0602
     33 C          63.2553   81.5581   10.6510 C.3     1  UNL1        0.0081
     34 C          62.7882   80.4346   11.5282 C.3     1  UNL1        0.0081
@<TRIPOS>UNITY_ATOM_ATTR
16 1
charge -1
@<TRIPOS>BOND
     1    16    17   ar
     2    17    18   ar
     3    17    10    1
     4    10    11   ar
     5    11    12   ar
     6    12    13   ar
     7    13     1    1
     8     1     2    1
     9     2     3    1
    10     3     4    1
    11     4     5    1
    12     5     6    2
    13     6    19    1
    14    19    20   ar
    15    20    24    1
    16    24    25   ar
    17    25    26    1
    18    25    27   ar
    19    27    28   ar
    20    28    29   ar
    21    29    30   ar
    22    30    31    1
    23    20    21   ar
    24    21    22   ar
    25    22    23   ar
    26    23    32    1
    27    32    33    1
    28    33    34    1
    29     6     7    1
    30     4     8    1
    31     8     9    1
    32    13    14   ar
    33    14    15   ar
    34    15    10   ar
    35     9     1    1
    36     7     4    1
    37    23    19   ar
    38    34    32    1
    39    30    24   ar
@<TRIPOS>MOLECULE
*****
 34 39 0 0 0
SMALL
GASTEIGER

@<TRIPOS>ATOM
      1 N          60.3980   91.1562    5.0854 N.pl3   1  UNL1       -0.2932
      2 C          61.6898   91.2082    4.3249 C.3     1  UNL1        0.0925
      3 C          61.8174   92.0971    3.1234 C.3     1  UNL1        0.0259
      4 C          60.6533   92.9340    2.6825 C.3     1  UNL1        0.0256
      5 C          61.7462   93.2422    1.7025 C.2     1  UNL1       -0.0304
      6 C          60.8338   94.1912    0.9833 C.2     1  UNL1       -0.0219
      7 C          59.7409   93.8830    1.9634 C.3     1  UNL1        0.0303
      8 C          59.3615   92.8820    3.4431 C.3     1  UNL1        0.0259
      9 C          59.2338   91.9931    4.6445 C.3     1  UNL1        0.0925
     10 C          60.0149   88.4895    8.6899 C.ar    1  UNL1        0.0332
     11 C          59.1837   88.2250    7.4696 C.ar    1  UNL1        0.0055
     12 C          59.3114   89.1140    6.2681 C.ar    1  UNL1        0.0344
     13 C          60.2703   90.2673    6.2870 C.ar    1  UNL1        0.1317
     14 N          61.1015   90.5317    7.5073 N.ar    1  UNL1       -0.2291
     15 C          60.9739   89.6429    8.7087 C.ar    1  UNL1        0.1014
     16 O          59.3248   88.1452   11.1709 O.co2   1  UNL1       -0.5445
     17 C          59.8873   87.6006    9.8914 C.2     1  UNL1        0.0744
     18 O          60.3222   86.1672    9.8134 O.co2   1  UNL1       -0.5445
     19 C          60.9615   95.0801   -0.2181 C.ar    1  UNL1        0.0495
     20 C          59.9371   95.2524   -1.3001 C.ar    1  UNL1        0.1238
     21 N          60.4784   96.2316   -2.2992 N.ar    1  UNL1       -0.0773
     22 O          61.8374   96.6644   -1.8347 O.2     1  UNL1       -0.3578
     23 C          62.1359   95.9527   -0.5484 C.ar    1  UNL1        0.1535
     24 C          58.6052   94.5662   -1.3707 C.ar    1  UNL1        0.0420
     25 C          57.3418   95.3670   -1.2576 C.ar    1  UNL1        0.0600
     26 CL         57.4105   96.8541   -1.0739 Cl      1  UNL1       -0.0822
     27 C          56.0099   94.6807   -1.3282 C.ar    1  UNL1        0.0115
     28 C          55.9413   93.1935   -1.5119 C.ar    1  UNL1        0.0017
     29 C          57.2046   92.3928   -1.6250 C.ar    1  UNL1        0.0115
     30 C          58.5365   93.0791   -1.5544 C.ar    1  UNL1        0.0600
     31 CL         59.7997   92.2782   -1.6676 Cl      1  UNL1       -0.0822
     32 C          63.3890   96.0896    0.2647 C.3     1  UNL1        0.0602
     33 C          64.2185   96.8528    1.2544 C.3     1  UNL1        0.0081
     34 C          64.7299   95.5635    0.6834 C.3     1  UNL1        0.0081
@<TRIPOS>UNITY_ATOM_ATTR
16 1
charge -1
@<TRIPOS>BOND
     1    16    17   ar
     2    17    18   ar
     3    17    10    1
     4    10    11   ar
     5    11    12   ar
     6    12    13   ar
     7    13     1    1
     8     1     2    1
     9     2     3    1
    10     3     4    1
    11     4     5    1
    12     5     6    2
    13     6    19    1
    14    19    20   ar
    15    20    24    1
    16    24    25   ar
    17    25    26    1
    18    25    27   ar
    19    27    28   ar
    20    28    29   ar
    21    29    30   ar
    22    30    31    1
    23    20    21   ar
    24    21    22   ar
    25    22    23   ar
    26    23    32    1
    27    32    33    1
    28    33    34    1
    29     6     7    1
    30     4     8    1
    31     8     9    1
    32    13    14   ar
    33    14    15   ar
    34    15    10   ar
    35     9     1    1
    36     7     4    1
    37    23    19   ar
    38    34    32    1
    39    30    24   ar
@<TRIPOS>MOLECULE
*****
 34 39 0 0 0
SMALL
GASTEIGER

@<TRIPOS>ATOM
      1 N          60.2851   92.5399    2.1043 N.pl3   1  UNL1       -0.2932
      2 C          60.5503   94.0161    2.0833 C.3     1  UNL1        0.0925
      3 C          60.7978   94.7151    0.7795 C.3     1  UNL1        0.0259
      4 C          60.7801   93.9379   -0.5034 C.3     1  UNL1        0.0256
      5 C          61.0706   95.3522   -0.9103 C.2     1  UNL1       -0.0304
      6 C          61.1302   94.9266   -2.3474 C.2     1  UNL1       -0.0219
      7 C          60.8397   93.5123   -1.9406 C.3     1  UNL1        0.0303
      8 C          60.5150   92.4617   -0.4824 C.3     1  UNL1        0.0259
      9 C          60.2675   91.7627    0.8214 C.3     1  UNL1        0.0925
     10 C          59.5425   90.4426    6.0159 C.ar    1  UNL1        0.0332
     11 C          60.9152   90.4377    5.4110 C.ar    1  UNL1        0.0055
     12 C          61.1627   91.1368    4.1071 C.ar    1  UNL1        0.0344
     13 C          60.0376   91.8407    3.4082 C.ar    1  UNL1        0.1317
     14 N          58.6650   91.8456    4.0130 N.ar    1  UNL1       -0.2291
     15 C          58.4174   91.1466    5.3168 C.ar    1  UNL1        0.1014
     16 O          59.8128   90.3342    8.5976 O.co2   1  UNL1       -0.5445
     17 C          59.2950   89.7435    7.3197 C.2     1  UNL1        0.0744
     18 O          58.5297   88.4537    7.3456 O.co2   1  UNL1       -0.5445
     19 C          61.3777   95.6256   -3.6513 C.ar    1  UNL1        0.0495
     20 C          60.3857   95.7938   -4.7637 C.ar    1  UNL1        0.1238
     21 N          61.0556   96.5513   -5.8715 N.ar    1  UNL1       -0.0773
     22 O          62.4616   96.8514   -5.4438 O.2     1  UNL1       -0.3578
     23 C          62.6607   96.2792   -4.0716 C.ar    1  UNL1        0.1535
     24 C          58.9720   95.2924   -4.7676 C.ar    1  UNL1        0.0420
     25 C          57.9929   95.8010   -3.7512 C.ar    1  UNL1        0.0600
     26 CL         58.4277   96.8109   -2.7309 Cl      1  UNL1       -0.0822
     27 C          56.5792   95.2996   -3.7552 C.ar    1  UNL1        0.0115
     28 C          56.1445   94.2897   -4.7755 C.ar    1  UNL1        0.0017
     29 C          57.1235   93.7812   -5.7918 C.ar    1  UNL1        0.0115
     30 C          58.5372   94.2825   -5.7879 C.ar    1  UNL1        0.0600
     31 CL         59.5161   93.7739   -6.8043 Cl      1  UNL1       -0.0822
     32 C          63.9215   96.3486   -3.2618 C.3     1  UNL1        0.0602
     33 C          65.3974   96.6020   -3.1750 C.3     1  UNL1        0.0081
     34 C          64.6293   96.2152   -1.9460 C.3     1  UNL1        0.0081
@<TRIPOS>UNITY_ATOM_ATTR
16 1
charge -1
@<TRIPOS>BOND
     1    16    17   ar
     2    17    18   ar
     3    17    10    1
     4    10    11   ar
     5    11    12   ar
     6    12    13   ar
     7    13     1    1
     8     1     2    1
     9     2     3    1
    10     3     4    1
    11     4     5    1
    12     5     6    2
    13     6    19    1
    14    19    20   ar
    15    20    24    1
    16    24    25   ar
    17    25    26    1
    18    25    27   ar
    19    27    28   ar
    20    28    29   ar
    21    29    30   ar
    22    30    31    1
    23    20    21   ar
    24    21    22   ar
    25    22    23   ar
    26    23    32    1
    27    32    33    1
    28    33    34    1
    29     6     7    1
    30     4     8    1
    31     8     9    1
    32    13    14   ar
    33    14    15   ar
    34    15    10   ar
    35     9     1    1
    36     7     4    1
    37    23    19   ar
    38    34    32    1
    39    30    24   ar
