@<TRIPOS>MOLECULE
*****
 21 23 0 0 0
SMALL
GASTEIGER

@<TRIPOS>ATOM
      1 C          66.2251   92.3611   13.6299 C.3     1  UNL1        0.0591
      2 C          65.6039   92.5454   12.2771 C.3     1  UNL1        0.0418
      3 C          64.4977   91.6365   11.8295 C.ar    1  UNL1       -0.0245
      4 C          63.8765   91.8208   10.4768 C.ar    1  UNL1       -0.0045
      5 C          62.7703   90.9119   10.0293 C.ar    1  UNL1       -0.0003
      6 C          62.2854   89.8187   10.9346 C.ar    1  UNL1       -0.0003
      7 C          62.9066   89.6343   12.2874 C.ar    1  UNL1       -0.0043
      8 C          64.0128   90.5432   12.7349 C.ar    1  UNL1       -0.0223
      9 C          64.6340   90.3589   14.0877 C.3     1  UNL1        0.0456
     10 C          65.7402   91.2678   14.5352 C.3     1  UNL1        0.0248
     11 C          64.1491   89.2656   14.9930 C.ar    1  UNL1       -0.0175
     12 C          63.3436   89.6037   16.2125 C.ar    1  UNL1       -0.0030
     13 C          62.8587   88.5104   17.1178 C.ar    1  UNL1        0.0119
     14 C          63.1792   87.0791   16.8037 C.ar    1  UNL1        0.0682
     15 CL         62.6943   85.9858   17.7090 Cl      1  UNL1       -0.0814
     16 C          63.9847   86.7411   15.5843 C.ar    1  UNL1        0.0679
     17 CL         64.3052   85.3097   15.2702 Cl      1  UNL1       -0.0814
     18 C          64.4696   87.8343   14.6790 C.ar    1  UNL1        0.0083
     19 C          67.7391   93.3009   15.5205 C.3     1  UNL1        0.0859
     20 N          67.3313   93.2700   14.0774 N.3     1  UNL1       -0.2971
     21 H          68.1602   93.0104   13.5427 H       1  UNL1        0.1233
@<TRIPOS>BOND
     1    19    20    1
     2     1    20    1
     3     1     2    1
     4     2     3    1
     5     3     4   ar
     6     4     5   ar
     7     5     6   ar
     8     6     7   ar
     9     7     8   ar
    10     8     9    1
    11     9    11    1
    12    11    12   ar
    13    12    13   ar
    14    13    14   ar
    15    14    15    1
    16    14    16   ar
    17    16    17    1
    18    16    18   ar
    19     9    10    1
    20    10     1    1
    21     8     3   ar
    22    18    11   ar
    23    20    21    1
@<TRIPOS>MOLECULE
*****
 21 23 0 0 0
SMALL
GASTEIGER

@<TRIPOS>ATOM
      1 C          62.3014   89.6379   11.2904 C.3     1  UNL1        0.0591
      2 C          61.3482   89.8937   10.1609 C.3     1  UNL1        0.0418
      3 C          60.7903   88.7439    9.3754 C.ar    1  UNL1       -0.0245
      4 C          59.8371   88.9997    8.2458 C.ar    1  UNL1       -0.0045
      5 C          59.2793   87.8500    7.4604 C.ar    1  UNL1       -0.0003
      6 C          59.6746   86.4446    7.8044 C.ar    1  UNL1       -0.0003
      7 C          60.6279   86.1888    8.9339 C.ar    1  UNL1       -0.0043
      8 C          61.1857   87.3385    9.7194 C.ar    1  UNL1       -0.0223
      9 C          62.1390   87.0828   10.8490 C.3     1  UNL1        0.0456
     10 C          62.6968   88.2324   11.6345 C.3     1  UNL1        0.0248
     11 C          62.5344   85.6773   11.1931 C.ar    1  UNL1       -0.0175
     12 C          63.1456   84.7927   10.1471 C.ar    1  UNL1       -0.0030
     13 C          63.5409   83.3873   10.4911 C.ar    1  UNL1        0.0119
     14 C          63.3251   82.8664   11.8812 C.ar    1  UNL1        0.0682
     15 CL         63.7205   81.4610   12.2253 Cl      1  UNL1       -0.0814
     16 C          62.7140   83.7510   12.9271 C.ar    1  UNL1        0.0679
     17 CL         62.4982   83.2301   14.3172 Cl      1  UNL1       -0.0814
     18 C          62.3186   85.1564   12.5831 C.ar    1  UNL1        0.0083
     19 C          63.6847   90.5284   13.3013 C.3     1  UNL1        0.0859
     20 N          62.8593   90.7876   12.0760 N.3     1  UNL1       -0.2971
     21 H          63.4434   91.3257   11.4359 H       1  UNL1        0.1233
@<TRIPOS>BOND
     1    19    20    1
     2     1    20    1
     3     1     2    1
     4     2     3    1
     5     3     4   ar
     6     4     5   ar
     7     5     6   ar
     8     6     7   ar
     9     7     8   ar
    10     8     9    1
    11     9    11    1
    12    11    12   ar
    13    12    13   ar
    14    13    14   ar
    15    14    15    1
    16    14    16   ar
    17    16    17    1
    18    16    18   ar
    19     9    10    1
    20    10     1    1
    21     8     3   ar
    22    18    11   ar
    23    20    21    1
@<TRIPOS>MOLECULE
*****
 21 23 0 0 0
SMALL
GASTEIGER

@<TRIPOS>ATOM
      1 C          63.5861   91.1298   11.2283 C.3     1  UNL1        0.0591
      2 C          64.6667   92.1567   11.3949 C.3     1  UNL1        0.0418
      3 C          65.4748   92.1969   12.6580 C.ar    1  UNL1       -0.0245
      4 C          66.5554   93.2238   12.8247 C.ar    1  UNL1       -0.0045
      5 C          67.3634   93.2640   14.0877 C.ar    1  UNL1       -0.0003
      6 C          67.0909   92.2773   15.1842 C.ar    1  UNL1       -0.0003
      7 C          66.0103   91.2504   15.0175 C.ar    1  UNL1       -0.0043
      8 C          65.2022   91.2102   13.7545 C.ar    1  UNL1       -0.0223
      9 C          64.1216   90.1833   13.5878 C.3     1  UNL1        0.0456
     10 C          63.3135   90.1431   12.3247 C.3     1  UNL1        0.0248
     11 C          63.8490   89.1966   14.6842 C.ar    1  UNL1       -0.0175
     12 C          63.2079   89.6527   15.9613 C.ar    1  UNL1       -0.0030
     13 C          62.9354   88.6660   17.0578 C.ar    1  UNL1        0.0119
     14 C          63.3040   87.2232   16.8771 C.ar    1  UNL1        0.0682
     15 CL         63.0314   86.2365   17.9735 Cl      1  UNL1       -0.0814
     16 C          63.9451   86.7672   15.6000 C.ar    1  UNL1        0.0679
     17 CL         64.3136   85.3244   15.4193 Cl      1  UNL1       -0.0814
     18 C          64.2176   87.7539   14.5035 C.ar    1  UNL1        0.0083
     19 C          61.7977   89.9774    9.7370 C.3     1  UNL1        0.0859
     20 N          62.7780   91.0896    9.9651 N.3     1  UNL1       -0.2971
     21 H          62.2490   91.9609    9.9261 H       1  UNL1        0.1233
@<TRIPOS>BOND
     1    19    20    1
     2     1    20    1
     3     1     2    1
     4     2     3    1
     5     3     4   ar
     6     4     5   ar
     7     5     6   ar
     8     6     7   ar
     9     7     8   ar
    10     8     9    1
    11     9    11    1
    12    11    12   ar
    13    12    13   ar
    14    13    14   ar
    15    14    15    1
    16    14    16   ar
    17    16    17    1
    18    16    18   ar
    19     9    10    1
    20    10     1    1
    21     8     3   ar
    22    18    11   ar
    23    20    21    1
@<TRIPOS>MOLECULE
*****
 21 23 0 0 0
SMALL
GASTEIGER

@<TRIPOS>ATOM
      1 C          64.0856   85.6037   14.3141 C.3     1  UNL1        0.0591
      2 C          64.5515   86.9451   14.7972 C.3     1  UNL1        0.0418
      3 C          64.2007   88.1832   14.0264 C.ar    1  UNL1       -0.0245
      4 C          64.6666   89.5247   14.5095 C.ar    1  UNL1       -0.0045
      5 C          64.3157   90.7627   13.7387 C.ar    1  UNL1       -0.0003
      6 C          63.4989   90.6593   12.4849 C.ar    1  UNL1       -0.0003
      7 C          63.0330   89.3179   12.0018 C.ar    1  UNL1       -0.0043
      8 C          63.3839   88.0799   12.7726 C.ar    1  UNL1       -0.0223
      9 C          62.9179   86.7383   12.2895 C.3     1  UNL1        0.0456
     10 C          63.2688   85.5003   13.0602 C.3     1  UNL1        0.0248
     11 C          62.1011   86.6349   11.0356 C.ar    1  UNL1       -0.0175
     12 C          60.7417   87.2660   10.9719 C.ar    1  UNL1       -0.0030
     13 C          59.9249   87.1626    9.7180 C.ar    1  UNL1        0.0119
     14 C          60.4675   86.4282    8.5279 C.ar    1  UNL1        0.0682
     15 CL         59.6507   86.3248    7.2741 Cl      1  UNL1       -0.0814
     16 C          61.8268   85.7972    8.5917 C.ar    1  UNL1        0.0679
     17 CL         62.3694   85.0627    7.4016 Cl      1  UNL1       -0.0814
     18 C          62.6436   85.9006    9.8455 C.ar    1  UNL1        0.0083
     19 C          63.8015   83.0545   14.7274 C.3     1  UNL1        0.0859
     20 N          64.4364   84.3656   15.0849 N.3     1  UNL1       -0.2971
     21 H          65.4445   84.2387   14.9952 H       1  UNL1        0.1233
@<TRIPOS>BOND
     1    19    20    1
     2     1    20    1
     3     1     2    1
     4     2     3    1
     5     3     4   ar
     6     4     5   ar
     7     5     6   ar
     8     6     7   ar
     9     7     8   ar
    10     8     9    1
    11     9    11    1
    12    11    12   ar
    13    12    13   ar
    14    13    14   ar
    15    14    15    1
    16    14    16   ar
    17    16    17    1
    18    16    18   ar
    19     9    10    1
    20    10     1    1
    21     8     3   ar
    22    18    11   ar
    23    20    21    1
@<TRIPOS>MOLECULE
*****
 21 23 0 0 0
SMALL
GASTEIGER

@<TRIPOS>ATOM
      1 C          63.6672   90.3440   15.1783 C.3     1  UNL1        0.0591
      2 C          64.7525   91.3374   14.8866 C.3     1  UNL1        0.0418
      3 C          64.9944   91.7918   13.4777 C.ar    1  UNL1       -0.0245
      4 C          66.0798   92.7852   13.1860 C.ar    1  UNL1       -0.0045
      5 C          66.3217   93.2396   11.7771 C.ar    1  UNL1       -0.0003
      6 C          65.4782   92.7006   10.6599 C.ar    1  UNL1       -0.0003
      7 C          64.3928   91.7072   10.9516 C.ar    1  UNL1       -0.0043
      8 C          64.1510   91.2528   12.3605 C.ar    1  UNL1       -0.0223
      9 C          63.0656   90.2594   12.6523 C.3     1  UNL1        0.0456
     10 C          62.8237   89.8050   14.0612 C.3     1  UNL1        0.0248
     11 C          62.2221   89.7204   11.5351 C.ar    1  UNL1       -0.0175
     12 C          61.0085   90.4756   11.0800 C.ar    1  UNL1       -0.0030
     13 C          60.1650   89.9366    9.9629 C.ar    1  UNL1        0.0119
     14 C          60.5351   88.6425    9.3008 C.ar    1  UNL1        0.0682
     15 CL         59.6916   88.1035    8.1837 Cl      1  UNL1       -0.0814
     16 C          61.7486   87.8873    9.7560 C.ar    1  UNL1        0.0679
     17 CL         62.1187   86.5932    9.0939 Cl      1  UNL1       -0.0814
     18 C          62.5921   88.4263   10.8731 C.ar    1  UNL1        0.0083
     19 C          63.0339   88.4674   16.8599 C.3     1  UNL1        0.0859
     20 N          63.4252   89.8896   16.5873 N.3     1  UNL1       -0.2971
     21 H          64.2873   90.0621   17.1044 H       1  UNL1        0.1233
@<TRIPOS>BOND
     1    19    20    1
     2     1    20    1
     3     1     2    1
     4     2     3    1
     5     3     4   ar
     6     4     5   ar
     7     5     6   ar
     8     6     7   ar
     9     7     8   ar
    10     8     9    1
    11     9    11    1
    12    11    12   ar
    13    12    13   ar
    14    13    14   ar
    15    14    15    1
    16    14    16   ar
    17    16    17    1
    18    16    18   ar
    19     9    10    1
    20    10     1    1
    21     8     3   ar
    22    18    11   ar
    23    20    21    1
@<TRIPOS>MOLECULE
*****
 21 23 0 0 0
SMALL
GASTEIGER

@<TRIPOS>ATOM
      1 C          60.1458   88.1699    8.5176 C.3     1  UNL1        0.0591
      2 C          60.5056   89.4567    9.1992 C.3     1  UNL1        0.0418
      3 C          61.4866   89.4556   10.3341 C.ar    1  UNL1       -0.0245
      4 C          61.8464   90.7424   11.0157 C.ar    1  UNL1       -0.0045
      5 C          62.8274   90.7412   12.1504 C.ar    1  UNL1       -0.0003
      6 C          63.4485   89.4533   12.6035 C.ar    1  UNL1       -0.0003
      7 C          63.0887   88.1665   11.9219 C.ar    1  UNL1       -0.0043
      8 C          62.1078   88.1676   10.7872 C.ar    1  UNL1       -0.0223
      9 C          61.7479   86.8808   10.1055 C.3     1  UNL1        0.0456
     10 C          60.7670   86.8819    8.9708 C.3     1  UNL1        0.0248
     11 C          62.3691   85.5928   10.5587 C.ar    1  UNL1       -0.0175
     12 C          63.1749   84.7698    9.5976 C.ar    1  UNL1       -0.0030
     13 C          63.7960   83.4819   10.0508 C.ar    1  UNL1        0.0119
     14 C          63.6114   83.0169   11.4649 C.ar    1  UNL1        0.0682
     15 CL         64.2325   81.7289   11.9181 Cl      1  UNL1       -0.0814
     16 C          62.8056   83.8398   12.4259 C.ar    1  UNL1        0.0679
     17 CL         62.6209   83.3748   13.8400 Cl      1  UNL1       -0.0814
     18 C          62.1844   85.1278   11.9727 C.ar    1  UNL1        0.0083
     19 C          59.0928   89.3472    6.4549 C.3     1  UNL1        0.0859
     20 N          59.1648   88.1710    7.3828 N.3     1  UNL1       -0.2971
     21 H          59.3780   87.3554    6.8085 H       1  UNL1        0.1233
@<TRIPOS>BOND
     1    19    20    1
     2     1    20    1
     3     1     2    1
     4     2     3    1
     5     3     4   ar
     6     4     5   ar
     7     5     6   ar
     8     6     7   ar
     9     7     8   ar
    10     8     9    1
    11     9    11    1
    12    11    12   ar
    13    12    13   ar
    14    13    14   ar
    15    14    15    1
    16    14    16   ar
    17    16    17    1
    18    16    18   ar
    19     9    10    1
    20    10     1    1
    21     8     3   ar
    22    18    11   ar
    23    20    21    1
@<TRIPOS>MOLECULE
*****
 21 23 0 0 0
SMALL
GASTEIGER

@<TRIPOS>ATOM
      1 C          60.6692   88.0674    9.1547 C.3     1  UNL1        0.0591
      2 C          61.1326   89.3618    9.7544 C.3     1  UNL1        0.0418
      3 C          62.0597   89.3527   10.9336 C.ar    1  UNL1       -0.0245
      4 C          62.5231   90.6471   11.5333 C.ar    1  UNL1       -0.0045
      5 C          63.4502   90.6379   12.7124 C.ar    1  UNL1       -0.0003
      6 C          63.9139   89.3343   13.2918 C.ar    1  UNL1       -0.0003
      7 C          63.4506   88.0399   12.6920 C.ar    1  UNL1       -0.0043
      8 C          62.5234   88.0491   11.5129 C.ar    1  UNL1       -0.0223
      9 C          62.0600   86.7546   10.9131 C.3     1  UNL1        0.0456
     10 C          61.1329   86.7638    9.7340 C.3     1  UNL1        0.0248
     11 C          62.5237   85.4511   11.4925 C.ar    1  UNL1       -0.0175
     12 C          62.3948   85.1967   12.9652 C.ar    1  UNL1       -0.0030
     13 C          62.8585   83.8931   13.5445 C.ar    1  UNL1        0.0119
     14 C          63.4512   82.8439   12.6512 C.ar    1  UNL1        0.0682
     15 CL         63.9149   81.5403   13.2305 Cl      1  UNL1       -0.0814
     16 C          63.5801   83.0983   11.1786 C.ar    1  UNL1        0.0679
     17 CL         64.1728   82.0491   10.2852 Cl      1  UNL1       -0.0814
     18 C          63.1164   84.4019   10.5992 C.ar    1  UNL1        0.0083
     19 C          58.9902   86.8332    7.6029 C.3     1  UNL1        0.0859
     20 N          59.7420   88.0765    7.9755 N.3     1  UNL1       -0.2971
     21 H          59.0451   88.7995    8.1545 H       1  UNL1        0.1233
@<TRIPOS>BOND
     1    19    20    1
     2     1    20    1
     3     1     2    1
     4     2     3    1
     5     3     4   ar
     6     4     5   ar
     7     5     6   ar
     8     6     7   ar
     9     7     8   ar
    10     8     9    1
    11     9    11    1
    12    11    12   ar
    13    12    13   ar
    14    13    14   ar
    15    14    15    1
    16    14    16   ar
    17    16    17    1
    18    16    18   ar
    19     9    10    1
    20    10     1    1
    21     8     3   ar
    22    18    11   ar
    23    20    21    1
@<TRIPOS>MOLECULE
*****
 21 23 0 0 0
SMALL
GASTEIGER

@<TRIPOS>ATOM
      1 C          65.1451   92.7787   10.7725 C.3     1  UNL1        0.0591
      2 C          65.5187   92.6847   12.2222 C.3     1  UNL1        0.0418
      3 C          64.8501   91.6729   13.1050 C.ar    1  UNL1       -0.0245
      4 C          65.2238   91.5789   14.5546 C.ar    1  UNL1       -0.0045
      5 C          64.5552   90.5670   15.4373 C.ar    1  UNL1       -0.0003
      6 C          63.5130   89.6492   14.8703 C.ar    1  UNL1       -0.0003
      7 C          63.1394   89.7432   13.4207 C.ar    1  UNL1       -0.0043
      8 C          63.8079   90.7551   12.5380 C.ar    1  UNL1       -0.0223
      9 C          63.4343   90.8491   11.0883 C.3     1  UNL1        0.0456
     10 C          64.1029   91.8609   10.2056 C.3     1  UNL1        0.0248
     11 C          62.3921   89.9313   10.5213 C.ar    1  UNL1       -0.0175
     12 C          60.9688   90.3914   10.4087 C.ar    1  UNL1       -0.0030
     13 C          59.9266   89.4736    9.8417 C.ar    1  UNL1        0.0119
     14 C          60.3077   88.0957    9.3874 C.ar    1  UNL1        0.0682
     15 CL         59.2655   87.1779    8.8205 Cl      1  UNL1       -0.0814
     16 C          61.7309   87.6357    9.5001 C.ar    1  UNL1        0.0679
     17 CL         62.1120   86.2578    9.0458 Cl      1  UNL1       -0.0814
     18 C          62.7731   88.5535   10.0670 C.ar    1  UNL1        0.0083
     19 C          67.2857   93.6931    9.6184 C.3     1  UNL1        0.0859
     20 N          65.8137   93.7906    9.8898 N.3     1  UNL1       -0.2971
     21 H          65.3441   93.7483    8.9853 H       1  UNL1        0.1233
@<TRIPOS>BOND
     1    19    20    1
     2     1    20    1
     3     1     2    1
     4     2     3    1
     5     3     4   ar
     6     4     5   ar
     7     5     6   ar
     8     6     7   ar
     9     7     8   ar
    10     8     9    1
    11     9    11    1
    12    11    12   ar
    13    12    13   ar
    14    13    14   ar
    15    14    15    1
    16    14    16   ar
    17    16    17    1
    18    16    18   ar
    19     9    10    1
    20    10     1    1
    21     8     3   ar
    22    18    11   ar
    23    20    21    1
@<TRIPOS>MOLECULE
*****
 21 23 0 0 0
SMALL
GASTEIGER

@<TRIPOS>ATOM
      1 C          63.7223   89.8605   13.3337 C.3     1  UNL1        0.0591
      2 C          64.3152   88.8847   14.3064 C.3     1  UNL1        0.0418
      3 C          64.1310   87.4109   14.0967 C.ar    1  UNL1       -0.0245
      4 C          64.7240   86.4351   15.0694 C.ar    1  UNL1       -0.0045
      5 C          64.5398   84.9613   14.8597 C.ar    1  UNL1       -0.0003
      6 C          63.7627   84.4633   13.6773 C.ar    1  UNL1       -0.0003
      7 C          63.1698   85.4391   12.7045 C.ar    1  UNL1       -0.0043
      8 C          63.3539   86.9129   12.9143 C.ar    1  UNL1       -0.0223
      9 C          62.7610   87.8888   11.9415 C.3     1  UNL1        0.0456
     10 C          62.9452   89.3626   12.1512 C.3     1  UNL1        0.0248
     11 C          61.9839   87.3908   10.7591 C.ar    1  UNL1       -0.0175
     12 C          60.5455   87.7809   10.5887 C.ar    1  UNL1       -0.0030
     13 C          59.7684   87.2829    9.4062 C.ar    1  UNL1        0.0119
     14 C          60.4297   86.3948    8.3942 C.ar    1  UNL1        0.0682
     15 CL         59.6526   85.8969    7.2118 Cl      1  UNL1       -0.0814
     16 C          61.8680   86.0048    8.5647 C.ar    1  UNL1        0.0679
     17 CL         62.5293   85.1167    7.5527 Cl      1  UNL1       -0.0814
     18 C          62.6451   86.5027    9.7471 C.ar    1  UNL1        0.0083
     19 C          64.9528   92.0774   12.7670 C.3     1  UNL1        0.0859
     20 N          63.9064   91.3344   13.5434 N.3     1  UNL1       -0.2971
     21 H          63.0122   91.7762   13.3298 H       1  UNL1        0.1233
@<TRIPOS>BOND
     1    19    20    1
     2     1    20    1
     3     1     2    1
     4     2     3    1
     5     3     4   ar
     6     4     5   ar
     7     5     6   ar
     8     6     7   ar
     9     7     8   ar
    10     8     9    1
    11     9    11    1
    12    11    12   ar
    13    12    13   ar
    14    13    14   ar
    15    14    15    1
    16    14    16   ar
    17    16    17    1
    18    16    18   ar
    19     9    10    1
    20    10     1    1
    21     8     3   ar
    22    18    11   ar
    23    20    21    1
