@<TRIPOS>MOLECULE
*****
 34 37 0 0 0
SMALL
GASTEIGER

@<TRIPOS>ATOM
      1 C          63.2910   87.1031   12.7884 C.ar    1  UNL1        0.1390
      2 C          63.3809   85.6159   12.9612 C.ar    1  UNL1        0.0733
      3 C          62.6444   84.7060   12.0233 C.ar    1  UNL1        0.1679
      4 N          61.8179   85.2833   10.9126 N.ar    1  UNL1       -0.2061
      5 C          61.7280   86.7707   10.7398 C.ar    1  UNL1        0.1828
      6 N          62.4646   87.6806   11.6777 N.ar    1  UNL1       -0.2101
      7 N          62.7343   83.2186   12.1961 N.ar    1  UNL1       -0.2164
      8 N          62.1123   82.4205   13.3035 N.ar    1  UNL1       -0.1684
      9 C          62.4555   80.9769   13.0837 C.ar    1  UNL1        0.0805
     10 C          62.0380   79.8290   13.9543 C.3     1  UNL1        0.0540
     11 C          63.2897   80.8829   11.8406 C.ar    1  UNL1        0.0312
     12 C          63.4619   82.2683   11.2920 C.ar    1  UNL1        0.0637
     13 C          64.2274   82.6385   10.0564 C.3     1  UNL1        0.0522
     14 C          60.9016   87.3481    9.6292 C.ar    1  UNL1        0.1171
     15 C          60.1389   86.4393    8.7113 C.ar    1  UNL1        0.0223
     16 C          59.3124   87.0167    7.6007 C.ar    1  UNL1        0.0032
     17 C          59.2487   88.5029    7.4078 C.ar    1  UNL1        0.0207
     18 C          60.0113   89.4117    8.3257 C.ar    1  UNL1        0.0989
     19 N          60.8378   88.8342    9.4364 N.ar    1  UNL1       -0.2407
     20 C          63.4349   89.3375   14.1063 C.2     1  UNL1        0.2316
     21 O          62.1056   89.7521   13.5484 O.2     1  UNL1       -0.2744
     22 N          64.0276   88.0130   13.7262 N.am    1  UNL1       -0.2689
     23 H          64.9000   87.7409   14.0924 H       1  UNL1        0.1563
     24 C          64.1714   90.2474   15.0441 C.3     1  UNL1        0.1119
     25 C          66.7555   93.2539   14.8606 C.ar    1  UNL1        0.1415
     26 C          65.9309   92.1249   15.4040 C.ar    1  UNL1        0.0333
     27 C          64.9961   91.3764   14.5007 C.ar    1  UNL1       -0.0071
     28 C          64.8860   91.7569   13.0539 C.ar    1  UNL1        0.0333
     29 C          65.7106   92.8859   12.5105 C.ar    1  UNL1        0.1415
     30 C          66.6454   93.6343   13.4139 C.ar    1  UNL1        0.0737
     31 C          69.1396   93.6206   15.8259 C.3     1  UNL1        0.2525
     32 O          67.6903   94.0023   15.7639 O.3     1  UNL1       -0.4713
     33 O          65.6005   93.2664   11.0637 O.3     1  UNL1       -0.4713
     34 C          66.8208   93.2598   10.1915 C.3     1  UNL1        0.2525
@<TRIPOS>BOND
     1    31    32    1
     2    32    25    1
     3    25    26   ar
     4    26    27   ar
     5    27    24    1
     6    24    20    1
     7    20    21    2
     8    20    22   am
     9    22     1    1
    10     1     2   ar
    11     2     3   ar
    12     3     7    1
    13     7     8   ar
    14     8     9   ar
    15     9    10    1
    16     9    11   ar
    17    11    12   ar
    18    12    13    1
    19     3     4   ar
    20     4     5   ar
    21     5    14    1
    22    14    15   ar
    23    15    16   ar
    24    16    17   ar
    25    17    18   ar
    26    18    19   ar
    27     5     6   ar
    28    27    28   ar
    29    28    29   ar
    30    29    33    1
    31    33    34    1
    32    29    30   ar
    33    30    25   ar
    34     6     1   ar
    35    12     7   ar
    36    19    14   ar
    37    22    23    1
@<TRIPOS>MOLECULE
*****
 34 37 0 0 0
SMALL
GASTEIGER

@<TRIPOS>ATOM
      1 C          63.2873   87.1044   12.7885 C.ar    1  UNL1        0.1390
      2 C          63.3798   85.6178   12.9659 C.ar    1  UNL1        0.0733
      3 C          62.6451   84.7037   12.0307 C.ar    1  UNL1        0.1679
      4 N          61.8180   85.2761   10.9180 N.ar    1  UNL1       -0.2061
      5 C          61.7255   86.7628   10.7405 C.ar    1  UNL1        0.1828
      6 N          62.4601   87.6769   11.6757 N.ar    1  UNL1       -0.2101
      7 N          62.7377   83.2171   12.2081 N.ar    1  UNL1       -0.2164
      8 N          62.1179   82.4214   13.3185 N.ar    1  UNL1       -0.1684
      9 C          62.4634   80.9777   13.1031 C.ar    1  UNL1        0.0805
     10 C          62.0484   79.8319   13.9776 C.3     1  UNL1        0.0540
     11 C          63.2967   80.8812   11.8595 C.ar    1  UNL1        0.0312
     12 C          63.4662   82.2651   11.3065 C.ar    1  UNL1        0.0637
     13 C          64.2301   82.6327   10.0690 C.3     1  UNL1        0.0522
     14 C          60.8983   87.3352    9.6279 C.ar    1  UNL1        0.1171
     15 C          60.1233   86.4232    8.7237 C.ar    1  UNL1        0.0223
     16 C          59.2961   86.9956    7.6110 C.ar    1  UNL1        0.0032
     17 C          59.2439   88.4802    7.4025 C.ar    1  UNL1        0.0207
     18 C          60.0190   89.3922    8.3066 C.ar    1  UNL1        0.0989
     19 N          60.8461   88.8197    9.4194 N.ar    1  UNL1       -0.2407
     20 C          63.4183   89.3350   14.1141 C.2     1  UNL1        0.2316
     21 O          62.0799   89.7374   13.5692 O.2     1  UNL1       -0.2744
     22 N          64.0220   88.0185   13.7237 N.am    1  UNL1       -0.2689
     23 H          64.9004   87.7544   14.0813 H       1  UNL1        0.1563
     24 C          64.1529   90.2491   15.0493 C.3     1  UNL1        0.1119
     25 C          65.7140   92.8656   12.5063 C.ar    1  UNL1        0.1415
     26 C          64.8807   91.7449   13.0536 C.ar    1  UNL1        0.0333
     27 C          64.9863   91.3699   14.5021 C.ar    1  UNL1       -0.0071
     28 C          65.9253   92.1155   15.4034 C.ar    1  UNL1        0.0333
     29 C          66.7586   93.2362   14.8561 C.ar    1  UNL1        0.1415
     30 C          66.6530   93.6113   13.4076 C.ar    1  UNL1        0.0737
     31 C          66.8303   93.6769   10.3050 C.3     1  UNL1        0.2525
     32 O          65.6084   93.2407   11.0578 O.3     1  UNL1       -0.4713
     33 O          67.6976   93.9819   15.7574 O.3     1  UNL1       -0.4713
     34 C          69.1504   93.6108   15.7991 C.3     1  UNL1        0.2525
@<TRIPOS>BOND
     1    31    32    1
     2    32    25    1
     3    25    26   ar
     4    26    27   ar
     5    27    24    1
     6    24    20    1
     7    20    21    2
     8    20    22   am
     9    22     1    1
    10     1     2   ar
    11     2     3   ar
    12     3     7    1
    13     7     8   ar
    14     8     9   ar
    15     9    10    1
    16     9    11   ar
    17    11    12   ar
    18    12    13    1
    19     3     4   ar
    20     4     5   ar
    21     5    14    1
    22    14    15   ar
    23    15    16   ar
    24    16    17   ar
    25    17    18   ar
    26    18    19   ar
    27     5     6   ar
    28    27    28   ar
    29    28    29   ar
    30    29    33    1
    31    33    34    1
    32    29    30   ar
    33    30    25   ar
    34     6     1   ar
    35    12     7   ar
    36    19    14   ar
    37    22    23    1
@<TRIPOS>MOLECULE
*****
 34 37 0 0 0
SMALL
GASTEIGER

@<TRIPOS>ATOM
      1 C          63.4977   87.2823   13.1473 C.ar    1  UNL1        0.1390
      2 C          62.7158   87.8629   12.0064 C.ar    1  UNL1        0.0733
      3 C          61.9081   86.9649   11.1169 C.ar    1  UNL1        0.1679
      4 N          61.8824   85.4863   11.3682 N.ar    1  UNL1       -0.2061
      5 C          62.6643   84.9057   12.5091 C.ar    1  UNL1        0.1828
      6 N          63.4719   85.8037   13.3986 N.ar    1  UNL1       -0.2101
      7 N          61.1262   87.5455    9.9760 N.ar    1  UNL1       -0.2164
      8 N          60.2346   86.7841    9.0404 N.ar    1  UNL1       -0.1684
      9 C          59.6560   87.7574    8.0566 C.ar    1  UNL1        0.0805
     10 C          58.7095   87.4260    6.9411 C.3     1  UNL1        0.0540
     11 C          60.1901   89.1203    8.3841 C.ar    1  UNL1        0.0312
     12 C          61.0987   88.9893    9.5704 C.ar    1  UNL1        0.0637
     13 C          61.8483   90.1060   10.2344 C.3     1  UNL1        0.0522
     14 C          62.6385   83.4271   12.7604 C.ar    1  UNL1        0.1171
     15 C          62.9938   82.4729   11.6589 C.ar    1  UNL1        0.0223
     16 C          62.9680   80.9943   11.9102 C.ar    1  UNL1        0.0032
     17 C          62.5869   80.4700   13.2630 C.ar    1  UNL1        0.0207
     18 C          62.2316   81.4243   14.3644 C.ar    1  UNL1        0.0989
     19 N          62.2574   82.9029   14.1131 N.ar    1  UNL1       -0.2407
     20 C          63.7041   89.4478   14.5678 C.2     1  UNL1        0.2316
     21 O          62.2952   89.8174   14.2092 O.2     1  UNL1       -0.2744
     22 N          64.3053   88.1803   14.0368 N.am    1  UNL1       -0.2689
     23 H          65.2300   87.9378   14.2722 H       1  UNL1        0.1563
     24 C          64.5118   90.3458   15.4573 C.3     1  UNL1        0.1119
     25 C          65.8699   92.9979   12.8359 C.ar    1  UNL1        0.1415
     26 C          65.0949   91.8574   13.4263 C.ar    1  UNL1        0.0333
     27 C          65.2869   91.4863   14.8669 C.ar    1  UNL1       -0.0071
     28 C          66.2538   92.2557   15.7172 C.ar    1  UNL1        0.0333
     29 C          67.0288   93.3962   15.1268 C.ar    1  UNL1        0.1415
     30 C          66.8369   93.7673   13.6861 C.ar    1  UNL1        0.0737
     31 C          66.0131   94.7538   10.9264 C.3     1  UNL1        0.2525
     32 O          65.6780   93.3689   11.3952 O.3     1  UNL1       -0.4713
     33 O          67.9959   94.1657   15.9770 O.3     1  UNL1       -0.4713
     34 C          69.4537   93.8131   15.9612 C.3     1  UNL1        0.2525
@<TRIPOS>BOND
     1    31    32    1
     2    32    25    1
     3    25    26   ar
     4    26    27   ar
     5    27    24    1
     6    24    20    1
     7    20    21    2
     8    20    22   am
     9    22     1    1
    10     1     2   ar
    11     2     3   ar
    12     3     7    1
    13     7     8   ar
    14     8     9   ar
    15     9    10    1
    16     9    11   ar
    17    11    12   ar
    18    12    13    1
    19     3     4   ar
    20     4     5   ar
    21     5    14    1
    22    14    15   ar
    23    15    16   ar
    24    16    17   ar
    25    17    18   ar
    26    18    19   ar
    27     5     6   ar
    28    27    28   ar
    29    28    29   ar
    30    29    33    1
    31    33    34    1
    32    29    30   ar
    33    30    25   ar
    34     6     1   ar
    35    12     7   ar
    36    19    14   ar
    37    22    23    1
@<TRIPOS>MOLECULE
*****
 34 37 0 0 0
SMALL
GASTEIGER

@<TRIPOS>ATOM
      1 C          63.1725   87.5920   12.3500 C.ar    1  UNL1        0.1390
      2 C          62.3863   87.9538   11.1249 C.ar    1  UNL1        0.0733
      3 C          61.6401   86.8925   10.3721 C.ar    1  UNL1        0.1679
      4 N          61.6800   85.4694   10.8444 N.ar    1  UNL1       -0.2061
      5 C          62.4662   85.1075   12.0695 C.ar    1  UNL1        0.1828
      6 N          63.2125   86.1688   12.8223 N.ar    1  UNL1       -0.2101
      7 N          60.8538   87.2544    9.1469 N.ar    1  UNL1       -0.2164
      8 N          60.1349   88.5496    8.9114 N.ar    1  UNL1       -0.1684
      9 C          59.4852   88.4803    7.5611 C.ar    1  UNL1        0.0805
     10 C          58.6626   89.5596    6.9221 C.3     1  UNL1        0.0540
     11 C          59.8028   87.1422    6.9621 C.ar    1  UNL1        0.0312
     12 C          60.6486   86.3846    7.9422 C.ar    1  UNL1        0.0637
     13 C          61.1935   85.0002    7.7512 C.3     1  UNL1        0.0522
     14 C          62.5061   83.6844   12.5418 C.ar    1  UNL1        0.1171
     15 C          62.8368   82.5834   11.5783 C.ar    1  UNL1        0.0223
     16 C          62.8767   81.1603   12.0506 C.ar    1  UNL1        0.0032
     17 C          62.5860   80.8381   13.4865 C.ar    1  UNL1        0.0207
     18 C          62.2553   81.9392   14.4501 C.ar    1  UNL1        0.0989
     19 N          62.2154   83.3623   13.9777 N.ar    1  UNL1       -0.2407
     20 C          63.1687   89.7690   13.7679 C.2     1  UNL1        0.2316
     21 O          61.6722   89.8235   13.6802 O.2     1  UNL1       -0.2744
     22 N          63.9188   88.6533   13.1028 N.am    1  UNL1       -0.2689
     23 H          64.9010   88.6176   13.1603 H       1  UNL1        0.1563
     24 C          63.9149   90.8303   14.5207 C.3     1  UNL1        0.1119
     25 C          67.4896   92.4637   13.9692 C.ar    1  UNL1        0.1415
     26 C          66.3437   91.7476   14.6204 C.ar    1  UNL1        0.0333
     27 C          65.0609   91.5465   13.8694 C.ar    1  UNL1       -0.0071
     28 C          64.9239   92.0615   12.4673 C.ar    1  UNL1        0.0333
     29 C          66.0698   92.7777   11.8162 C.ar    1  UNL1        0.1415
     30 C          67.3527   92.9787   12.5672 C.ar    1  UNL1        0.0737
     31 C          68.8346   93.6520   15.8477 C.3     1  UNL1        0.2525
     32 O          68.7724   92.6647   14.7202 O.3     1  UNL1       -0.4713
     33 O          65.9330   93.2928   10.4140 O.3     1  UNL1       -0.4713
     34 C          67.0262   94.1234    9.8101 C.3     1  UNL1        0.2525
@<TRIPOS>BOND
     1    31    32    1
     2    32    25    1
     3    25    26   ar
     4    26    27   ar
     5    27    24    1
     6    24    20    1
     7    20    21    2
     8    20    22   am
     9    22     1    1
    10     1     2   ar
    11     2     3   ar
    12     3     7    1
    13     7     8   ar
    14     8     9   ar
    15     9    10    1
    16     9    11   ar
    17    11    12   ar
    18    12    13    1
    19     3     4   ar
    20     4     5   ar
    21     5    14    1
    22    14    15   ar
    23    15    16   ar
    24    16    17   ar
    25    17    18   ar
    26    18    19   ar
    27     5     6   ar
    28    27    28   ar
    29    28    29   ar
    30    29    33    1
    31    33    34    1
    32    29    30   ar
    33    30    25   ar
    34     6     1   ar
    35    12     7   ar
    36    19    14   ar
    37    22    23    1
