@<TRIPOS>MOLECULE
*****
 32 36 0 0 0
SMALL
GASTEIGER

@<TRIPOS>ATOM
      1 N          61.5391   89.9808   10.5043 N.3     1  UNL1       -0.2711
      2 C          62.3659   90.7917    9.5510 C.3     1  UNL1        0.0741
      3 C          63.5329   91.5859   10.0586 C.3     1  UNL1        0.0401
      4 C          63.8730   91.5691   11.5195 C.3     1  UNL1        0.0926
      5 C          63.0461   90.7581   12.4727 C.3     1  UNL1        0.0401
      6 C          61.8792   89.9640   11.9651 C.3     1  UNL1        0.0741
      7 N          65.0398   92.3632   12.0270 N.ar    1  UNL1       -0.2837
      8 C          65.6531   93.5565   11.3560 C.ar    1  UNL1        0.2974
      9 O          65.2070   94.1649   10.0596 O.3     1  UNL1       -0.4795
     10 N          66.7906   94.0342   12.2090 N.ar    1  UNL1       -0.1943
     11 C          66.8804   93.1364   13.4072 C.ar    1  UNL1        0.1039
     12 C          67.8078   93.1257   14.5863 C.ar    1  UNL1        0.0503
     13 C          67.6531   92.0824   15.6528 C.ar    1  UNL1        0.1417
     14 F          68.5803   92.0717   16.8317 F       1  UNL1       -0.2041
     15 C          66.5710   91.0496   15.5403 C.ar    1  UNL1        0.0312
     16 C          65.6437   91.0603   14.3613 C.ar    1  UNL1        0.0211
     17 C          65.7984   92.1036   13.2948 C.ar    1  UNL1        0.0816
     18 H          64.4823   93.7963    9.5938 H       1  UNL1        0.2953
     19 C          60.3722   89.1867    9.9966 C.3     1  UNL1        0.0939
     20 C          60.1567   87.7812   10.4746 C.3     1  UNL1        0.1110
     21 O          61.3239   86.3372   12.5727 O.2     1  UNL1       -0.2699
     22 C          61.7337   85.9230   11.1904 C.2     1  UNL1        0.2487
     23 C          62.7143   84.7905   11.1144 C.ar    1  UNL1        0.0496
     24 C          63.0887   84.2970   12.4805 C.ar    1  UNL1        0.0042
     25 C          64.0608   83.1643   12.6283 C.ar    1  UNL1        0.0001
     26 C          64.6587   82.5251   11.4101 C.ar    1  UNL1       -0.0003
     27 C          64.2843   83.0186   10.0440 C.ar    1  UNL1       -0.0041
     28 C          63.3122   84.1513    9.8961 C.ar    1  UNL1       -0.0178
     29 C          63.0770   84.4869    8.4532 C.3     1  UNL1        0.0283
     30 C          62.1861   85.5444    7.8720 C.3     1  UNL1        0.0262
     31 C          61.3101   86.5277    8.5903 C.3     1  UNL1        0.0941
     32 N          61.1088   86.6962   10.0672 N.am    1  UNL1       -0.2747
@<TRIPOS>BOND
     1    21    22    2
     2    22    23    1
     3    23    24   ar
     4    24    25   ar
     5    25    26   ar
     6    26    27   ar
     7    27    28   ar
     8    28    29    1
     9    29    30    1
    10    30    31    1
    11    31    32    1
    12    32    20    1
    13    20    19    1
    14    19     1    1
    15     1     2    1
    16     2     3    1
    17     3     4    1
    18     4     7    1
    19     7     8   ar
    20     8     9    1
    21     8    10   ar
    22    10    11   ar
    23    11    12   ar
    24    12    13   ar
    25    13    14    1
    26    13    15   ar
    27    15    16   ar
    28    16    17   ar
    29     4     5    1
    30     5     6    1
    31    32    22   am
    32     6     1    1
    33    28    23   ar
    34    17     7   ar
    35    17    11   ar
    36     9    18    1
@<TRIPOS>MOLECULE
*****
 32 36 0 0 0
SMALL
GASTEIGER

@<TRIPOS>ATOM
      1 N          64.8663   91.0724   13.7928 N.3     1  UNL1       -0.2711
      2 C          64.6830   89.7170   14.4087 C.3     1  UNL1        0.0741
      3 C          63.9004   88.6630   13.6828 C.3     1  UNL1        0.0401
      4 C          63.3011   88.9645   12.3412 C.3     1  UNL1        0.0926
      5 C          63.4845   90.3200   11.7254 C.3     1  UNL1        0.0401
      6 C          64.2670   91.3739   12.4512 C.3     1  UNL1        0.0741
      7 N          62.5186   87.9106   11.6154 N.ar    1  UNL1       -0.2837
      8 C          62.5295   86.4409   11.9155 C.ar    1  UNL1        0.2974
      9 O          63.3249   85.7673   12.9941 O.3     1  UNL1       -0.4795
     10 N          61.6054   85.7633   10.9476 N.ar    1  UNL1       -0.1943
     11 C          61.0234   86.8141   10.0494 C.ar    1  UNL1        0.1039
     12 C          60.0523   86.7341    8.9088 C.ar    1  UNL1        0.0503
     13 C          59.6456   87.9811    8.1810 C.ar    1  UNL1        0.1417
     14 F          58.6746   87.9010    7.0406 F       1  UNL1       -0.2041
     15 C          60.2101   89.3082    8.5938 C.ar    1  UNL1        0.0312
     16 C          61.1811   89.3882    9.7342 C.ar    1  UNL1        0.0211
     17 C          61.5877   88.1413   10.4620 C.ar    1  UNL1        0.0816
     18 H          63.8787   86.2748   13.5543 H       1  UNL1        0.2953
     19 C          65.6489   92.1263   14.5187 C.3     1  UNL1        0.0939
     20 C          67.0064   92.5276   14.0223 C.3     1  UNL1        0.1110
     21 O          65.9665   94.9783   13.1495 O.2     1  UNL1       -0.2699
     22 C          66.6545   94.1533   12.1025 C.2     1  UNL1        0.2487
     23 C          66.6948   94.7497   10.7267 C.ar    1  UNL1        0.0496
     24 C          66.0167   96.0871   10.6890 C.ar    1  UNL1        0.0042
     25 C          65.9456   96.8559    9.4031 C.ar    1  UNL1        0.0001
     26 C          66.5526   96.2873    8.1548 C.ar    1  UNL1       -0.0003
     27 C          67.2307   94.9499    8.1924 C.ar    1  UNL1       -0.0041
     28 C          67.3017   94.1811    9.4784 C.ar    1  UNL1       -0.0178
     29 C          68.0184   92.8757    9.2977 C.3     1  UNL1        0.0283
     30 C          68.3050   91.8166   10.3205 C.3     1  UNL1        0.0262
     31 C          67.9458   91.8013   11.7768 C.3     1  UNL1        0.0941
     32 N          67.2112   92.8413   12.5699 N.am    1  UNL1       -0.2747
@<TRIPOS>BOND
     1    21    22    2
     2    22    23    1
     3    23    24   ar
     4    24    25   ar
     5    25    26   ar
     6    26    27   ar
     7    27    28   ar
     8    28    29    1
     9    29    30    1
    10    30    31    1
    11    31    32    1
    12    32    20    1
    13    20    19    1
    14    19     1    1
    15     1     2    1
    16     2     3    1
    17     3     4    1
    18     4     7    1
    19     7     8   ar
    20     8     9    1
    21     8    10   ar
    22    10    11   ar
    23    11    12   ar
    24    12    13   ar
    25    13    14    1
    26    13    15   ar
    27    15    16   ar
    28    16    17   ar
    29     4     5    1
    30     5     6    1
    31    32    22   am
    32     6     1    1
    33    28    23   ar
    34    17     7   ar
    35    17    11   ar
    36     9    18    1
@<TRIPOS>MOLECULE
*****
 32 36 0 0 0
SMALL
GASTEIGER

@<TRIPOS>ATOM
      1 N          64.6454   90.8017   13.2564 N.3     1  UNL1       -0.2711
      2 C          64.0416   89.4502   13.4990 C.3     1  UNL1        0.0741
      3 C          63.0358   88.8941   12.5350 C.3     1  UNL1        0.0401
      4 C          62.6338   89.6896   11.3285 C.3     1  UNL1        0.0926
      5 C          63.2377   91.0411   11.0860 C.3     1  UNL1        0.0401
      6 C          64.2434   91.5971   12.0499 C.3     1  UNL1        0.0741
      7 N          61.6281   89.1335   10.3646 N.ar    1  UNL1       -0.2837
      8 C          60.2911   89.7325   10.0420 C.ar    1  UNL1        0.2974
      9 O          59.7254   90.9926   10.6268 O.3     1  UNL1       -0.4795
     10 N          59.6194   88.8500    9.0321 N.ar    1  UNL1       -0.1943
     11 C          60.5411   87.7057    8.7304 C.ar    1  UNL1        0.1039
     12 C          60.4105   86.5267    7.8122 C.ar    1  UNL1        0.0503
     13 C          61.5211   85.5230    7.7176 C.ar    1  UNL1        0.1417
     14 F          61.3905   84.3441    6.7995 F       1  UNL1       -0.2041
     15 C          62.7626   85.6983    8.5412 C.ar    1  UNL1        0.0312
     16 C          62.8932   86.8772    9.4593 C.ar    1  UNL1        0.0211
     17 C          61.7826   87.8809    9.5540 C.ar    1  UNL1        0.0816
     18 H          60.2202   91.4809   11.2549 H       1  UNL1        0.2953
     19 C          65.6512   91.3577   14.2204 C.3     1  UNL1        0.0939
     20 C          67.0308   91.7073   13.7463 C.3     1  UNL1        0.1110
     21 O          65.8633   94.2299   13.3959 O.2     1  UNL1       -0.2699
     22 C          66.5990   93.6826   12.2088 C.2     1  UNL1        0.2487
     23 C          66.6124   94.5584   10.9911 C.ar    1  UNL1        0.0496
     24 C          65.8631   95.8363   11.2268 C.ar    1  UNL1        0.0042
     25 C          65.7556   96.8556   10.1317 C.ar    1  UNL1        0.0001
     26 C          66.3973   96.5970    8.8008 C.ar    1  UNL1       -0.0003
     27 C          67.1465   95.3192    8.5650 C.ar    1  UNL1       -0.0041
     28 C          67.2541   94.2999    9.6602 C.ar    1  UNL1       -0.0178
     29 C          68.0409   93.1016    9.2183 C.3     1  UNL1        0.0283
     30 C          68.3804   91.8661    9.9982 C.3     1  UNL1        0.0262
     31 C          68.0169   91.5236   11.4126 C.3     1  UNL1        0.0941
     32 N          67.2241   92.3320   12.3965 N.am    1  UNL1       -0.2747
@<TRIPOS>BOND
     1    21    22    2
     2    22    23    1
     3    23    24   ar
     4    24    25   ar
     5    25    26   ar
     6    26    27   ar
     7    27    28   ar
     8    28    29    1
     9    29    30    1
    10    30    31    1
    11    31    32    1
    12    32    20    1
    13    20    19    1
    14    19     1    1
    15     1     2    1
    16     2     3    1
    17     3     4    1
    18     4     7    1
    19     7     8   ar
    20     8     9    1
    21     8    10   ar
    22    10    11   ar
    23    11    12   ar
    24    12    13   ar
    25    13    14    1
    26    13    15   ar
    27    15    16   ar
    28    16    17   ar
    29     4     5    1
    30     5     6    1
    31    32    22   am
    32     6     1    1
    33    28    23   ar
    34    17     7   ar
    35    17    11   ar
    36     9    18    1
@<TRIPOS>MOLECULE
*****
 32 36 0 0 0
SMALL
GASTEIGER

@<TRIPOS>ATOM
      1 N          62.6712   88.4057   11.3553 N.3     1  UNL1       -0.2711
      2 C          61.8980   87.2892   10.7185 C.3     1  UNL1        0.0741
      3 C          61.8791   85.9313   11.3556 C.3     1  UNL1        0.0401
      4 C          62.6332   85.6900   12.6296 C.3     1  UNL1        0.0926
      5 C          63.4064   86.8067   13.2664 C.3     1  UNL1        0.0401
      6 C          63.4253   88.1644   12.6293 C.3     1  UNL1        0.0741
      7 N          62.6143   84.3323   13.2667 N.ar    1  UNL1       -0.2837
      8 C          62.4978   84.0489   14.7351 C.ar    1  UNL1        0.2974
      9 O          62.3798   85.0736   15.8241 O.3     1  UNL1       -0.4795
     10 N          62.5200   82.5609   14.9232 N.ar    1  UNL1       -0.1943
     11 C          62.6502   81.9247   13.5711 C.ar    1  UNL1        0.1039
     12 C          62.7232   80.4898   13.1398 C.ar    1  UNL1        0.0503
     13 C          62.8546   80.1497   11.6848 C.ar    1  UNL1        0.1417
     14 F          62.9276   78.7150   11.2535 F       1  UNL1       -0.2041
     15 C          62.9128   81.2445   10.6610 C.ar    1  UNL1        0.0312
     16 C          62.8398   82.6793   11.0922 C.ar    1  UNL1        0.0211
     17 C          62.7085   83.0194   12.5473 C.ar    1  UNL1        0.0816
     18 H          62.3745   85.9859   15.6104 H       1  UNL1        0.2953
     19 C          62.6901   89.7636   10.7182 C.3     1  UNL1        0.0939
     20 C          62.7654   90.9929   11.5745 C.3     1  UNL1        0.1110
     21 O          63.3591   91.0395   14.3121 O.2     1  UNL1       -0.2699
     22 C          64.4180   91.5957   13.4070 C.2     1  UNL1        0.2487
     23 C          65.6548   92.1034   14.0873 C.ar    1  UNL1        0.0496
     24 C          65.5669   91.9417   15.5759 C.ar    1  UNL1        0.0042
     25 C          66.7035   92.3881   16.4471 C.ar    1  UNL1        0.0001
     26 C          67.9278   92.9962   15.8296 C.ar    1  UNL1       -0.0003
     27 C          68.0156   93.1579   14.3410 C.ar    1  UNL1       -0.0041
     28 C          66.8791   92.7115   13.4698 C.ar    1  UNL1       -0.0178
     29 C          67.1690   92.9621   12.0196 C.3     1  UNL1        0.0283
     30 C          66.3063   92.6665   10.8286 C.3     1  UNL1        0.0262
     31 C          64.9405   92.0473   10.7938 C.3     1  UNL1        0.0941
     32 N          64.1001   91.5708   11.9413 N.am    1  UNL1       -0.2747
@<TRIPOS>BOND
     1    21    22    2
     2    22    23    1
     3    23    24   ar
     4    24    25   ar
     5    25    26   ar
     6    26    27   ar
     7    27    28   ar
     8    28    29    1
     9    29    30    1
    10    30    31    1
    11    31    32    1
    12    32    20    1
    13    20    19    1
    14    19     1    1
    15     1     2    1
    16     2     3    1
    17     3     4    1
    18     4     7    1
    19     7     8   ar
    20     8     9    1
    21     8    10   ar
    22    10    11   ar
    23    11    12   ar
    24    12    13   ar
    25    13    14    1
    26    13    15   ar
    27    15    16   ar
    28    16    17   ar
    29     4     5    1
    30     5     6    1
    31    32    22   am
    32     6     1    1
    33    28    23   ar
    34    17     7   ar
    35    17    11   ar
    36     9    18    1
@<TRIPOS>MOLECULE
*****
 32 36 0 0 0
SMALL
GASTEIGER

@<TRIPOS>ATOM
      1 N          62.8211   89.3551   11.2577 N.3     1  UNL1       -0.2711
      2 C          63.2241   88.5517   12.4586 C.3     1  UNL1        0.0741
      3 C          63.9139   89.2198   13.6109 C.3     1  UNL1        0.0401
      4 C          64.2006   90.6913   13.5624 C.3     1  UNL1        0.0926
      5 C          63.7976   91.4947   12.3615 C.3     1  UNL1        0.0401
      6 C          63.1078   90.8266   11.2092 C.3     1  UNL1        0.0741
      7 N          64.8904   91.3594   14.7147 N.ar    1  UNL1       -0.2837
      8 C          64.3160   91.5696   16.0844 C.ar    1  UNL1        0.2974
      9 O          62.9511   91.1485   16.5421 O.3     1  UNL1       -0.4795
     10 N          65.3463   92.2747   16.9158 N.ar    1  UNL1       -0.1943
     11 C          66.5573   92.5003   16.0600 C.ar    1  UNL1        0.1039
     12 C          67.8804   93.1479   16.3437 C.ar    1  UNL1        0.0503
     13 C          68.9216   93.2297   15.2671 C.ar    1  UNL1        0.1417
     14 F          70.2445   93.8771   15.5508 F       1  UNL1       -0.2041
     15 C          68.6398   92.6639   13.9067 C.ar    1  UNL1        0.0312
     16 C          67.3168   92.0165   13.6230 C.ar    1  UNL1        0.0211
     17 C          66.2756   91.9347   14.6996 C.ar    1  UNL1        0.0816
     18 H          62.3723   90.7110   15.9492 H       1  UNL1        0.2953
     19 C          62.1313   88.6869   10.1054 C.3     1  UNL1        0.0939
     20 C          61.3812   87.4059   10.3210 C.3     1  UNL1        0.1110
     21 O          61.4307   86.0463   12.7702 O.2     1  UNL1       -0.2699
     22 C          62.1423   85.3702   11.6360 C.2     1  UNL1        0.2487
     23 C          62.7864   84.0556   11.9631 C.ar    1  UNL1        0.0496
     24 C          62.5751   83.6846   13.4010 C.ar    1  UNL1        0.0042
     25 C          63.1405   82.4022   13.9355 C.ar    1  UNL1        0.0001
     26 C          63.9171   81.4908   13.0321 C.ar    1  UNL1       -0.0003
     27 C          64.1284   81.8618   11.5942 C.ar    1  UNL1       -0.0041
     28 C          63.5630   83.1442   11.0597 C.ar    1  UNL1       -0.0178
     29 C          63.8874   83.3223    9.6060 C.3     1  UNL1        0.0283
     30 C          63.5153   84.4558    8.6968 C.3     1  UNL1        0.0262
     31 C          62.7268   85.6912    9.0167 C.3     1  UNL1        0.0941
     32 N          62.1158   86.0982   10.3247 N.am    1  UNL1       -0.2747
@<TRIPOS>BOND
     1    21    22    2
     2    22    23    1
     3    23    24   ar
     4    24    25   ar
     5    25    26   ar
     6    26    27   ar
     7    27    28   ar
     8    28    29    1
     9    29    30    1
    10    30    31    1
    11    31    32    1
    12    32    20    1
    13    20    19    1
    14    19     1    1
    15     1     2    1
    16     2     3    1
    17     3     4    1
    18     4     7    1
    19     7     8   ar
    20     8     9    1
    21     8    10   ar
    22    10    11   ar
    23    11    12   ar
    24    12    13   ar
    25    13    14    1
    26    13    15   ar
    27    15    16   ar
    28    16    17   ar
    29     4     5    1
    30     5     6    1
    31    32    22   am
    32     6     1    1
    33    28    23   ar
    34    17     7   ar
    35    17    11   ar
    36     9    18    1
@<TRIPOS>MOLECULE
*****
 32 36 0 0 0
SMALL
GASTEIGER

@<TRIPOS>ATOM
      1 N          64.7655   91.0161   13.8120 N.3     1  UNL1       -0.2711
      2 C          64.7990   89.7461   14.6095 C.3     1  UNL1        0.0741
      3 C          64.1729   88.4987   14.0598 C.3     1  UNL1        0.0401
      4 C          63.5134   88.5213   12.7128 C.3     1  UNL1        0.0926
      5 C          63.4800   89.7914   11.9154 C.3     1  UNL1        0.0401
      6 C          64.1061   91.0387   12.4650 C.3     1  UNL1        0.0741
      7 N          62.8874   87.2740   12.1632 N.ar    1  UNL1       -0.2837
      8 C          61.8379   87.2120   11.0931 C.ar    1  UNL1        0.2974
      9 O          61.2303   88.3864   10.3850 O.3     1  UNL1       -0.4795
     10 N          61.5028   85.7693   10.8557 N.ar    1  UNL1       -0.1943
     11 C          62.3450   84.9397   11.7789 C.ar    1  UNL1        0.1039
     12 C          62.4434   83.4576   11.9883 C.ar    1  UNL1        0.0503
     13 C          63.3975   82.9055   13.0056 C.ar    1  UNL1        0.1417
     14 F          63.4958   81.4235   13.2149 F       1  UNL1       -0.2041
     15 C          64.2532   83.8355   13.8136 C.ar    1  UNL1        0.0312
     16 C          64.1549   85.3175   13.6043 C.ar    1  UNL1        0.0211
     17 C          63.2008   85.8697   12.5870 C.ar    1  UNL1        0.0816
     18 H          61.5035   89.2563   10.6009 H       1  UNL1        0.2953
     19 C          65.3916   92.2634   14.3617 C.3     1  UNL1        0.0939
     20 C          66.7763   92.6565   13.9392 C.3     1  UNL1        0.1110
     21 O          65.7918   95.0795   12.9345 O.2     1  UNL1       -0.2699
     22 C          66.5432   94.2264   11.9559 C.2     1  UNL1        0.2487
     23 C          66.6682   94.7835   10.5687 C.ar    1  UNL1        0.0496
     24 C          65.9935   96.1180   10.4513 C.ar    1  UNL1        0.0042
     25 C          66.0017   96.8498    9.1420 C.ar    1  UNL1        0.0001
     26 C          66.6846   96.2472    7.9502 C.ar    1  UNL1       -0.0003
     27 C          67.3593   94.9126    8.0676 C.ar    1  UNL1       -0.0041
     28 C          67.3511   94.1808    9.3769 C.ar    1  UNL1       -0.0178
     29 C          68.0777   92.8723    9.2779 C.3     1  UNL1        0.0283
     30 C          68.3009   91.8432   10.3462 C.3     1  UNL1        0.0262
     31 C          67.8525   91.8686   11.7774 C.3     1  UNL1        0.0941
     32 N          67.0703   92.9292   12.4938 N.am    1  UNL1       -0.2747
@<TRIPOS>BOND
     1    21    22    2
     2    22    23    1
     3    23    24   ar
     4    24    25   ar
     5    25    26   ar
     6    26    27   ar
     7    27    28   ar
     8    28    29    1
     9    29    30    1
    10    30    31    1
    11    31    32    1
    12    32    20    1
    13    20    19    1
    14    19     1    1
    15     1     2    1
    16     2     3    1
    17     3     4    1
    18     4     7    1
    19     7     8   ar
    20     8     9    1
    21     8    10   ar
    22    10    11   ar
    23    11    12   ar
    24    12    13   ar
    25    13    14    1
    26    13    15   ar
    27    15    16   ar
    28    16    17   ar
    29     4     5    1
    30     5     6    1
    31    32    22   am
    32     6     1    1
    33    28    23   ar
    34    17     7   ar
    35    17    11   ar
    36     9    18    1
@<TRIPOS>MOLECULE
*****
 32 36 0 0 0
SMALL
GASTEIGER

@<TRIPOS>ATOM
      1 N          63.4253   86.8019   16.0069 N.3     1  UNL1       -0.2711
      2 C          64.3095   86.8356   14.7958 C.3     1  UNL1        0.0741
      3 C          64.7670   88.1507   14.2375 C.3     1  UNL1        0.0401
      4 C          64.3402   89.4319   14.8905 C.3     1  UNL1        0.0926
      5 C          63.4559   89.3980   16.1018 C.3     1  UNL1        0.0401
      6 C          62.9985   88.0830   16.6599 C.3     1  UNL1        0.0741
      7 N          64.7975   90.7468   14.3324 N.ar    1  UNL1       -0.2837
      8 C          64.2065   91.4563   13.1502 C.ar    1  UNL1        0.2974
      9 O          63.0544   90.9755   12.3189 O.3     1  UNL1       -0.4795
     10 N          64.9700   92.7312   12.9456 N.ar    1  UNL1       -0.1943
     11 C          66.0328   92.8096   14.0011 C.ar    1  UNL1        0.1039
     12 C          67.0840   93.8392   14.2926 C.ar    1  UNL1        0.0503
     13 C          68.0285   93.6425   15.4412 C.ar    1  UNL1        0.1417
     14 F          69.0796   94.6721   15.7327 F       1  UNL1       -0.2041
     15 C          67.9219   92.4161   16.2983 C.ar    1  UNL1        0.0312
     16 C          66.8708   91.3864   16.0068 C.ar    1  UNL1        0.0211
     17 C          65.9263   91.5831   14.8582 C.ar    1  UNL1        0.0816
     18 H          62.6369   90.1618   12.5229 H       1  UNL1        0.2953
     19 C          62.9679   85.4868   16.5651 C.3     1  UNL1        0.0939
     20 C          62.1779   84.5425   15.7082 C.3     1  UNL1        0.1110
     21 O          61.5721   85.9487   13.3620 O.2     1  UNL1       -0.2699
     22 C          62.4529   84.7466   13.1913 C.2     1  UNL1        0.2487
     23 C          62.8928   84.4564   11.7869 C.ar    1  UNL1        0.0496
     24 C          62.3408   85.4622   10.8207 C.ar    1  UNL1        0.0042
     25 C          62.6617   85.3532    9.3596 C.ar    1  UNL1        0.0001
     26 C          63.5347   84.2383    8.8646 C.ar    1  UNL1       -0.0003
     27 C          64.0868   83.2325    9.8307 C.ar    1  UNL1       -0.0041
     28 C          63.7658   83.3415   11.2919 C.ar    1  UNL1       -0.0178
     29 C          64.4145   82.2416   12.0790 C.3     1  UNL1        0.0283
     30 C          64.3503   81.9848   13.5555 C.3     1  UNL1        0.0262
     31 C          63.6217   82.7647   14.6095 C.3     1  UNL1        0.0941
     32 N          62.7772   83.9938   14.4475 N.am    1  UNL1       -0.2747
@<TRIPOS>BOND
     1    21    22    2
     2    22    23    1
     3    23    24   ar
     4    24    25   ar
     5    25    26   ar
     6    26    27   ar
     7    27    28   ar
     8    28    29    1
     9    29    30    1
    10    30    31    1
    11    31    32    1
    12    32    20    1
    13    20    19    1
    14    19     1    1
    15     1     2    1
    16     2     3    1
    17     3     4    1
    18     4     7    1
    19     7     8   ar
    20     8     9    1
    21     8    10   ar
    22    10    11   ar
    23    11    12   ar
    24    12    13   ar
    25    13    14    1
    26    13    15   ar
    27    15    16   ar
    28    16    17   ar
    29     4     5    1
    30     5     6    1
    31    32    22   am
    32     6     1    1
    33    28    23   ar
    34    17     7   ar
    35    17    11   ar
    36     9    18    1
@<TRIPOS>MOLECULE
*****
 32 36 0 0 0
SMALL
GASTEIGER

@<TRIPOS>ATOM
      1 N          62.2881   88.6218   12.1101 N.3     1  UNL1       -0.2711
      2 C          61.5245   87.9437   11.0115 C.3     1  UNL1        0.0741
      3 C          61.7485   86.4873   10.7306 C.3     1  UNL1        0.0401
      4 C          62.7362   85.7091   11.5484 C.3     1  UNL1        0.0926
      5 C          63.4998   86.3872   12.6471 C.3     1  UNL1        0.0401
      6 C          63.2758   87.8435   12.9279 C.3     1  UNL1        0.0741
      7 N          62.9602   84.2528   11.2676 N.ar    1  UNL1       -0.2837
      8 C          63.4353   83.6678    9.9706 C.ar    1  UNL1        0.2974
      9 O          63.7697   84.4366    8.7268 O.3     1  UNL1       -0.4795
     10 N          63.5172   82.1792   10.1359 N.ar    1  UNL1       -0.1943
     11 C          63.0928   81.8442   11.5350 C.ar    1  UNL1        0.1039
     12 C          62.9753   80.5376   12.2625 C.ar    1  UNL1        0.0503
     13 C          62.5135   80.5126   13.6895 C.ar    1  UNL1        0.1417
     14 F          62.3960   79.2062   14.4170 F       1  UNL1       -0.2041
     15 C          62.1693   81.7942   14.3889 C.ar    1  UNL1        0.0312
     16 C          62.2868   83.1006   13.6614 C.ar    1  UNL1        0.0211
     17 C          62.7485   83.1256   12.2345 C.ar    1  UNL1        0.0816
     18 H          63.6880   85.3699    8.7167 H       1  UNL1        0.2953
     19 C          62.0641   90.0781   12.3909 C.3     1  UNL1        0.0939
     20 C          62.7392   91.1174   11.5457 C.3     1  UNL1        0.1110
     21 O          63.3391   91.2192   14.2805 O.2     1  UNL1       -0.2699
     22 C          64.4439   91.6370   13.3559 C.2     1  UNL1        0.2487
     23 C          65.7237   92.0540   14.0178 C.ar    1  UNL1        0.0496
     24 C          65.6236   91.9617   15.5115 C.ar    1  UNL1        0.0042
     25 C          66.7982   92.3349   16.3664 C.ar    1  UNL1        0.0001
     26 C          68.0730   92.8005   15.7275 C.ar    1  UNL1       -0.0003
     27 C          68.1732   92.8928   14.2337 C.ar    1  UNL1       -0.0041
     28 C          66.9985   92.5196   13.3789 C.ar    1  UNL1       -0.0178
     29 C          67.3083   92.6830   11.9203 C.3     1  UNL1        0.0283
     30 C          66.4198   92.4213   10.7404 C.3     1  UNL1        0.0262
     31 C          65.0021   91.9315   10.7277 C.3     1  UNL1        0.0941
     32 N          64.1226   91.5825   11.8917 N.am    1  UNL1       -0.2747
@<TRIPOS>BOND
     1    21    22    2
     2    22    23    1
     3    23    24   ar
     4    24    25   ar
     5    25    26   ar
     6    26    27   ar
     7    27    28   ar
     8    28    29    1
     9    29    30    1
    10    30    31    1
    11    31    32    1
    12    32    20    1
    13    20    19    1
    14    19     1    1
    15     1     2    1
    16     2     3    1
    17     3     4    1
    18     4     7    1
    19     7     8   ar
    20     8     9    1
    21     8    10   ar
    22    10    11   ar
    23    11    12   ar
    24    12    13   ar
    25    13    14    1
    26    13    15   ar
    27    15    16   ar
    28    16    17   ar
    29     4     5    1
    30     5     6    1
    31    32    22   am
    32     6     1    1
    33    28    23   ar
    34    17     7   ar
    35    17    11   ar
    36     9    18    1
@<TRIPOS>MOLECULE
*****
 32 36 0 0 0
SMALL
GASTEIGER

@<TRIPOS>ATOM
      1 N          63.5002   86.7487   15.9348 N.3     1  UNL1       -0.2711
      2 C          64.4090   86.8163   14.7434 C.3     1  UNL1        0.0741
      3 C          64.8504   88.1477   14.2114 C.3     1  UNL1        0.0401
      4 C          64.3830   89.4112   14.8709 C.3     1  UNL1        0.0926
      5 C          63.4742   89.3434   16.0624 C.3     1  UNL1        0.0401
      6 C          63.0328   88.0122   16.5943 C.3     1  UNL1        0.0741
      7 N          64.8243   90.7424   14.3390 N.ar    1  UNL1       -0.2837
      8 C          64.2127   91.4766   13.1827 C.ar    1  UNL1        0.2974
      9 O          63.0525   91.0084   12.3554 O.3     1  UNL1       -0.4795
     10 N          64.9652   92.7611   12.9991 N.ar    1  UNL1       -0.1943
     11 C          66.0418   92.8209   14.0418 C.ar    1  UNL1        0.1039
     12 C          67.0902   93.8502   14.3443 C.ar    1  UNL1        0.0503
     13 C          68.0515   93.6319   15.4749 C.ar    1  UNL1        0.1417
     14 F          69.0998   94.6611   15.7773 F       1  UNL1       -0.2041
     15 C          67.9644   92.3842   16.3030 C.ar    1  UNL1        0.0312
     16 C          66.9160   91.3549   16.0006 C.ar    1  UNL1        0.0211
     17 C          65.9547   91.5732   14.8700 C.ar    1  UNL1        0.0816
     18 H          62.6430   90.1872   12.5450 H       1  UNL1        0.2953
     19 C          63.0589   85.4174   16.4667 C.3     1  UNL1        0.0939
     20 C          62.0502   84.6046   15.7103 C.3     1  UNL1        0.1110
     21 O          62.0589   81.8339   15.2948 O.2     1  UNL1       -0.2699
     22 C          62.3503   82.6742   14.0868 C.2     1  UNL1        0.2487
     23 C          62.6078   81.9198   12.8161 C.ar    1  UNL1        0.0496
     24 C          62.5163   80.4380   13.0303 C.ar    1  UNL1        0.0042
     25 C          62.7412   79.4990   11.8824 C.ar    1  UNL1        0.0001
     26 C          63.0576   80.0418   10.5203 C.ar    1  UNL1       -0.0003
     27 C          63.1491   81.5236   10.3062 C.ar    1  UNL1       -0.0041
     28 C          62.9242   82.4626   11.4540 C.ar    1  UNL1       -0.0178
     29 C          63.0613   83.8938   11.0263 C.3     1  UNL1        0.0283
     30 C          62.9158   85.1357   11.8549 C.3     1  UNL1        0.0262
     31 C          62.5973   85.2530   13.3160 C.3     1  UNL1        0.0941
     32 N          62.3456   84.1575   14.3094 N.am    1  UNL1       -0.2747
@<TRIPOS>BOND
     1    21    22    2
     2    22    23    1
     3    23    24   ar
     4    24    25   ar
     5    25    26   ar
     6    26    27   ar
     7    27    28   ar
     8    28    29    1
     9    29    30    1
    10    30    31    1
    11    31    32    1
    12    32    20    1
    13    20    19    1
    14    19     1    1
    15     1     2    1
    16     2     3    1
    17     3     4    1
    18     4     7    1
    19     7     8   ar
    20     8     9    1
    21     8    10   ar
    22    10    11   ar
    23    11    12   ar
    24    12    13   ar
    25    13    14    1
    26    13    15   ar
    27    15    16   ar
    28    16    17   ar
    29     4     5    1
    30     5     6    1
    31    32    22   am
    32     6     1    1
    33    28    23   ar
    34    17     7   ar
    35    17    11   ar
    36     9    18    1
