@<TRIPOS>MOLECULE
*****
 25 26 0 0 0
SMALL
GASTEIGER

@<TRIPOS>ATOM
      1 C          62.1705   86.8889   10.9610 C.ar    1  UNL1        0.0527
      2 C          61.2343   87.7599   10.1767 C.ar    1  UNL1        0.1091
      3 N          61.3293   89.1532   10.7241 N.ar    1  UNL1       -0.2035
      4 C          62.3241   89.1434   11.8466 C.ar    1  UNL1        0.2628
      5 S          62.8440   87.7440   11.9931 S.2     1  UNL1       -0.0283
      6 C          62.9822   84.5862   11.8491 C.2     1  UNL1       -0.0064
      7 C          62.3938   85.4207   10.7503 C.2     1  UNL1        0.0052
      8 C          63.2055   83.1180   11.6383 C.3     1  UNL1        0.0939
      9 C          64.4277   82.6422   10.9104 C.3     1  UNL1        0.0262
     10 C          61.2312   80.7290   14.1170 C.3     1  UNL1        0.0946
     11 C          62.2300   81.7213   13.5998 C.2     1  UNL1        0.2232
     12 O          63.2522   82.3093   14.5269 O.2     1  UNL1       -0.2751
     13 N          62.2067   82.1256   12.1555 N.am    1  UNL1       -0.3022
     14 H          61.5359   81.7397   11.5470 H       1  UNL1        0.1497
     15 O          62.7282   90.3255   12.6770 O.3     1  UNL1       -0.4313
     16 C          63.8866   91.1790   12.2531 C.ar    1  UNL1        0.1479
     17 C          63.9716   91.6811   10.8423 C.ar    1  UNL1        0.0407
     18 C          65.1300   92.5346   10.4185 C.ar    1  UNL1        0.0400
     19 C          66.2034   92.8860   11.4056 C.ar    1  UNL1        0.1386
     20 C          66.1184   92.3839   12.8165 C.ar    1  UNL1        0.0400
     21 C          64.9600   91.5304   13.2403 C.ar    1  UNL1        0.0407
     22 O          67.3618   93.7395   10.9818 O.3     1  UNL1       -0.4792
     23 C          67.8723   93.6654    9.5733 C.3     1  UNL1        0.1661
     24 C          68.6271   92.4539    9.1119 C.3     1  UNL1        0.0472
     25 C          67.6281   94.8026    8.6261 C.3     1  UNL1        0.0472
@<TRIPOS>BOND
     1    10    11    1
     2    11    12    2
     3    11    13   am
     4    13     8    1
     5     8     9    1
     6     8     6    1
     7     6     7    2
     8     7     1    1
     9     1     2   ar
    10     2     3   ar
    11     3     4   ar
    12     4    15    1
    13    15    16    1
    14    16    17   ar
    15    17    18   ar
    16    18    19   ar
    17    19    22    1
    18    22    23    1
    19    23    24    1
    20    23    25    1
    21    19    20   ar
    22    20    21   ar
    23     4     5   ar
    24     5     1   ar
    25    21    16   ar
    26    13    14    1
@<TRIPOS>MOLECULE
*****
 25 26 0 0 0
SMALL
GASTEIGER

@<TRIPOS>ATOM
      1 C          63.9049   87.7468   15.4866 C.ar    1  UNL1        0.0527
      2 C          63.1610   88.3940   16.6170 C.ar    1  UNL1        0.1091
      3 N          63.0407   89.8582   16.3147 N.ar    1  UNL1       -0.2035
      4 C          63.7103   90.1161   14.9974 C.ar    1  UNL1        0.2628
      5 S          64.2444   88.8111   14.4857 S.2     1  UNL1       -0.0283
      6 C          63.8969   85.5290   14.1333 C.2     1  UNL1       -0.0064
      7 C          64.2490   86.2910   15.3765 C.2     1  UNL1        0.0052
      8 C          64.2409   84.0732   14.0233 C.3     1  UNL1        0.0939
      9 C          64.0607   83.1684   15.2060 C.3     1  UNL1        0.0262
     10 C          64.3776   82.8394   10.2538 C.3     1  UNL1        0.0946
     11 C          63.8534   83.3904   11.5467 C.2     1  UNL1        0.2232
     12 O          62.4173   83.8098   11.6558 O.2     1  UNL1       -0.2751
     13 N          64.7652   83.5221   12.7304 N.am    1  UNL1       -0.3022
     14 H          65.7077   83.2469   12.6588 H       1  UNL1        0.1497
     15 O          63.8255   91.4454   14.3123 O.3     1  UNL1       -0.4313
     16 C          65.0182   91.7457   13.4535 C.ar    1  UNL1        0.1479
     17 C          64.8337   92.0701   12.0007 C.ar    1  UNL1        0.0407
     18 C          66.0263   92.3704   11.1419 C.ar    1  UNL1        0.0400
     19 C          67.4034   92.3462   11.7360 C.ar    1  UNL1        0.1386
     20 C          67.5879   92.0217   13.1888 C.ar    1  UNL1        0.0400
     21 C          66.3953   91.7215   14.0475 C.ar    1  UNL1        0.0407
     22 O          68.5961   92.6464   10.8771 O.3     1  UNL1       -0.4792
     23 C          68.4054   93.0798    9.4539 C.3     1  UNL1        0.1661
     24 C          68.7553   92.1469    8.3325 C.3     1  UNL1        0.0472
     25 C          67.8647   94.4460    9.1519 C.3     1  UNL1        0.0472
@<TRIPOS>BOND
     1    10    11    1
     2    11    12    2
     3    11    13   am
     4    13     8    1
     5     8     9    1
     6     8     6    1
     7     6     7    2
     8     7     1    1
     9     1     2   ar
    10     2     3   ar
    11     3     4   ar
    12     4    15    1
    13    15    16    1
    14    16    17   ar
    15    17    18   ar
    16    18    19   ar
    17    19    22    1
    18    22    23    1
    19    23    24    1
    20    23    25    1
    21    19    20   ar
    22    20    21   ar
    23     4     5   ar
    24     5     1   ar
    25    21    16   ar
    26    13    14    1
@<TRIPOS>MOLECULE
*****
 25 26 0 0 0
SMALL
GASTEIGER

@<TRIPOS>ATOM
      1 C          63.9384   91.2497   12.6682 C.ar    1  UNL1        0.0527
      2 C          63.7783   90.5905   14.0060 C.ar    1  UNL1        0.1091
      3 N          62.5078   89.7935   13.9810 N.ar    1  UNL1       -0.2035
      4 C          61.8827   89.9602   12.6277 C.ar    1  UNL1        0.2628
      5 S          62.7669   90.8602   11.8163 S.2     1  UNL1       -0.0283
      6 C          64.9520   92.9807   11.0170 C.2     1  UNL1       -0.0064
      7 C          65.0712   92.1419   12.2548 C.2     1  UNL1        0.0052
      8 C          66.0847   93.8729   10.6036 C.3     1  UNL1        0.0939
      9 C          66.3164   95.1711   11.3185 C.3     1  UNL1        0.0262
     10 C          69.0491   92.1485    8.6066 C.3     1  UNL1        0.0946
     11 C          68.1480   92.5546    9.7347 C.2     1  UNL1        0.2232
     12 O          68.4090   92.0484   11.1225 O.2     1  UNL1       -0.2751
     13 N          66.9859   93.4668    9.4753 N.am    1  UNL1       -0.3022
     14 H          66.8146   93.7990    8.5645 H       1  UNL1        0.1497
     15 O          60.5988   89.3364   12.1667 O.3     1  UNL1       -0.4313
     16 C          60.5931   88.4251   10.9752 C.ar    1  UNL1        0.1479
     17 C          61.0191   86.9946   11.1230 C.ar    1  UNL1        0.0407
     18 C          61.0134   86.0834    9.9315 C.ar    1  UNL1        0.0400
     19 C          60.5817   86.6029    8.5921 C.ar    1  UNL1        0.1386
     20 C          60.1557   88.0335    8.4443 C.ar    1  UNL1        0.0400
     21 C          60.1614   88.9446    9.6358 C.ar    1  UNL1        0.0407
     22 O          60.5760   85.6916    7.4006 O.3     1  UNL1       -0.4792
     23 C          61.8370   84.9947    6.9833 C.3     1  UNL1        0.1661
     24 C          61.8922   84.2639    5.6745 C.3     1  UNL1        0.0472
     25 C          63.0428   85.0286    7.8748 C.3     1  UNL1        0.0472
@<TRIPOS>BOND
     1    10    11    1
     2    11    12    2
     3    11    13   am
     4    13     8    1
     5     8     9    1
     6     8     6    1
     7     6     7    2
     8     7     1    1
     9     1     2   ar
    10     2     3   ar
    11     3     4   ar
    12     4    15    1
    13    15    16    1
    14    16    17   ar
    15    17    18   ar
    16    18    19   ar
    17    19    22    1
    18    22    23    1
    19    23    24    1
    20    23    25    1
    21    19    20   ar
    22    20    21   ar
    23     4     5   ar
    24     5     1   ar
    25    21    16   ar
    26    13    14    1
@<TRIPOS>MOLECULE
*****
 25 26 0 0 0
SMALL
GASTEIGER

@<TRIPOS>ATOM
      1 C          64.3315   90.6449   13.4139 C.ar    1  UNL1        0.0527
      2 C          63.6143   89.6878   12.5084 C.ar    1  UNL1        0.1091
      3 N          63.3717   88.4201   13.2726 N.ar    1  UNL1       -0.2035
      4 C          63.9389   88.5936   14.6503 C.ar    1  UNL1        0.2628
      5 S          64.5321   89.9686   14.7376 S.2     1  UNL1       -0.0283
      6 C          65.4260   92.2978   11.7346 C.2     1  UNL1       -0.0064
      7 C          64.7710   92.0342   13.0580 C.2     1  UNL1        0.0052
      8 C          65.8655   93.6871   11.3788 C.3     1  UNL1        0.0939
      9 C          66.3476   94.6190   12.4508 C.3     1  UNL1        0.0262
     10 C          67.0573   94.8318    7.7707 C.3     1  UNL1        0.0946
     11 C          67.0999   94.3744    9.1985 C.2     1  UNL1        0.2232
     12 O          68.4197   94.1467    9.8740 O.2     1  UNL1       -0.2751
     13 N          65.8228   94.1446    9.9509 N.am    1  UNL1       -0.3022
     14 H          64.9566   94.2940    9.5075 H       1  UNL1        0.1497
     15 O          63.9168   87.5716   15.7480 O.3     1  UNL1       -0.4313
     16 C          63.8358   86.1118   15.4122 C.ar    1  UNL1        0.1479
     17 C          62.7246   85.2740   15.9718 C.ar    1  UNL1        0.0407
     18 C          62.6437   83.8144   15.6360 C.ar    1  UNL1        0.0400
     19 C          63.6739   83.1926   14.7405 C.ar    1  UNL1        0.1386
     20 C          64.7851   84.0304   14.1808 C.ar    1  UNL1        0.0400
     21 C          64.8660   85.4900   14.5166 C.ar    1  UNL1        0.0407
     22 O          63.5929   81.7328   14.4046 O.3     1  UNL1       -0.4792
     23 C          62.5511   81.2409   13.4442 C.3     1  UNL1        0.1661
     24 C          61.2000   80.8290   13.9493 C.3     1  UNL1        0.0472
     25 C          62.8602   81.1608   11.9785 C.3     1  UNL1        0.0472
@<TRIPOS>BOND
     1    10    11    1
     2    11    12    2
     3    11    13   am
     4    13     8    1
     5     8     9    1
     6     8     6    1
     7     6     7    2
     8     7     1    1
     9     1     2   ar
    10     2     3   ar
    11     3     4   ar
    12     4    15    1
    13    15    16    1
    14    16    17   ar
    15    17    18   ar
    16    18    19   ar
    17    19    22    1
    18    22    23    1
    19    23    24    1
    20    23    25    1
    21    19    20   ar
    22    20    21   ar
    23     4     5   ar
    24     5     1   ar
    25    21    16   ar
    26    13    14    1
@<TRIPOS>MOLECULE
*****
 25 26 0 0 0
SMALL
GASTEIGER

@<TRIPOS>ATOM
      1 C          62.2475   90.4220   10.8315 C.ar    1  UNL1        0.0527
      2 C          60.7560   90.5513   10.7380 C.ar    1  UNL1        0.1091
      3 N          60.2216   89.3034   10.0999 N.ar    1  UNL1       -0.2035
      4 C          61.3828   88.4028    9.7991 C.ar    1  UNL1        0.2628
      5 S          62.6349   89.0942   10.2512 S.2     1  UNL1       -0.0283
      6 C          64.3589   91.9181   10.5990 C.2     1  UNL1       -0.0064
      7 C          63.1867   91.4416   11.4046 C.2     1  UNL1        0.0052
      8 C          65.2981   92.9376   11.1721 C.3     1  UNL1        0.0939
      9 C          65.7654   92.8124   12.5920 C.3     1  UNL1        0.0262
     10 C          67.6473   95.2429    8.9550 C.3     1  UNL1        0.0946
     11 C          67.1754   94.0983    9.8017 C.2     1  UNL1        0.2232
     12 O          68.1091   92.9696   10.1248 O.2     1  UNL1       -0.2751
     13 N          65.7699   94.0823   10.3254 N.am    1  UNL1       -0.3022
     14 H          65.1571   94.8231   10.1133 H       1  UNL1        0.1497
     15 O          61.3056   87.0487    9.1586 O.3     1  UNL1       -0.4313
     16 C          62.0302   85.8868    9.7712 C.ar    1  UNL1        0.1479
     17 C          61.8031   85.5363   11.2118 C.ar    1  UNL1        0.0407
     18 C          62.5277   84.3745   11.8242 C.ar    1  UNL1        0.0400
     19 C          63.4794   83.5632   10.9960 C.ar    1  UNL1        0.1386
     20 C          63.7065   83.9137    9.5554 C.ar    1  UNL1        0.0400
     21 C          62.9819   85.0755    8.9429 C.ar    1  UNL1        0.0407
     22 O          64.2040   82.4014   11.6085 O.3     1  UNL1       -0.4792
     23 C          63.5745   81.6329   12.7324 C.3     1  UNL1        0.1661
     24 C          62.7015   80.4497   12.4353 C.3     1  UNL1        0.0472
     25 C          63.8178   82.0475   14.1532 C.3     1  UNL1        0.0472
@<TRIPOS>BOND
     1    10    11    1
     2    11    12    2
     3    11    13   am
     4    13     8    1
     5     8     9    1
     6     8     6    1
     7     6     7    2
     8     7     1    1
     9     1     2   ar
    10     2     3   ar
    11     3     4   ar
    12     4    15    1
    13    15    16    1
    14    16    17   ar
    15    17    18   ar
    16    18    19   ar
    17    19    22    1
    18    22    23    1
    19    23    24    1
    20    23    25    1
    21    19    20   ar
    22    20    21   ar
    23     4     5   ar
    24     5     1   ar
    25    21    16   ar
    26    13    14    1
@<TRIPOS>MOLECULE
*****
 25 26 0 0 0
SMALL
GASTEIGER

@<TRIPOS>ATOM
      1 C          63.8675   86.7180   13.8832 C.ar    1  UNL1        0.0527
      2 C          64.1570   87.2663   15.2491 C.ar    1  UNL1        0.1091
      3 N          63.9393   88.7498   15.2088 N.ar    1  UNL1       -0.2035
      4 C          63.5152   89.1185   13.8180 C.ar    1  UNL1        0.2628
      5 S          63.4709   87.8627   12.9988 S.2     1  UNL1       -0.0283
      6 C          63.1960   84.7883   12.2784 C.2     1  UNL1       -0.0064
      7 C          63.9587   85.2778   13.4737 C.2     1  UNL1        0.0052
      8 C          63.2871   83.3481   11.8689 C.3     1  UNL1        0.0939
      9 C          64.4540   82.8721   11.0555 C.3     1  UNL1        0.0262
     10 C          61.2321   80.6940   13.9859 C.3     1  UNL1        0.0946
     11 C          62.3078   81.6581   13.5819 C.2     1  UNL1        0.2232
     12 O          63.4801   81.8962   14.4870 O.2     1  UNL1       -0.2751
     13 N          62.2113   82.3841   12.2729 N.am    1  UNL1       -0.3022
     14 H          61.4419   82.2278   11.6789 H       1  UNL1        0.1497
     15 O          63.1923   90.5002   13.3319 O.3     1  UNL1       -0.4313
     16 C          64.2584   91.3378   12.6900 C.ar    1  UNL1        0.1479
     17 C          65.4072   91.8465   13.5094 C.ar    1  UNL1        0.0407
     18 C          66.4733   92.6840   12.8675 C.ar    1  UNL1        0.0400
     19 C          66.3905   93.0128   11.4063 C.ar    1  UNL1        0.1386
     20 C          65.2417   92.5041   10.5870 C.ar    1  UNL1        0.0400
     21 C          64.1756   91.6666   11.2289 C.ar    1  UNL1        0.0407
     22 O          67.4566   93.8504   10.7645 O.3     1  UNL1       -0.4792
     23 C          67.8232   93.6258    9.3274 C.3     1  UNL1        0.1661
     24 C          67.3580   94.5887    8.2754 C.3     1  UNL1        0.0472
     25 C          68.6548   92.4384    8.9422 C.3     1  UNL1        0.0472
@<TRIPOS>BOND
     1    10    11    1
     2    11    12    2
     3    11    13   am
     4    13     8    1
     5     8     9    1
     6     8     6    1
     7     6     7    2
     8     7     1    1
     9     1     2   ar
    10     2     3   ar
    11     3     4   ar
    12     4    15    1
    13    15    16    1
    14    16    17   ar
    15    17    18   ar
    16    18    19   ar
    17    19    22    1
    18    22    23    1
    19    23    24    1
    20    23    25    1
    21    19    20   ar
    22    20    21   ar
    23     4     5   ar
    24     5     1   ar
    25    21    16   ar
    26    13    14    1
@<TRIPOS>MOLECULE
*****
 25 26 0 0 0
SMALL
GASTEIGER

@<TRIPOS>ATOM
      1 C          61.8911   86.8994   10.2843 C.ar    1  UNL1        0.0527
      2 C          61.1641   87.6783    9.2283 C.ar    1  UNL1        0.1091
      3 N          61.1142   89.1132    9.6626 N.ar    1  UNL1       -0.2035
      4 C          61.8102   89.2212   10.9869 C.ar    1  UNL1        0.2628
      5 S          62.2904   87.8531   11.3711 S.2     1  UNL1       -0.0283
      6 C          62.9477   84.7897   11.3717 C.2     1  UNL1       -0.0064
      7 C          62.1698   85.4258   10.2581 C.2     1  UNL1        0.0052
      8 C          63.2265   83.3160   11.3454 C.3     1  UNL1        0.0939
      9 C          64.4453   82.7957   10.6428 C.3     1  UNL1        0.0262
     10 C          61.5328   81.0747   14.1485 C.3     1  UNL1        0.0946
     11 C          62.4728   82.0279   13.4720 C.2     1  UNL1        0.2232
     12 O          63.5993   82.6462   14.2458 O.2     1  UNL1       -0.2751
     13 N          62.2864   82.3628   12.0219 N.am    1  UNL1       -0.3022
     14 H          61.5470   81.9570   11.5140 H       1  UNL1        0.1497
     15 O          61.9938   90.4769   11.7865 O.3     1  UNL1       -0.4313
     16 C          63.3395   90.8118   12.3585 C.ar    1  UNL1        0.1479
     17 C          63.7834   90.1861   13.6474 C.ar    1  UNL1        0.0407
     18 C          65.1290   90.5210   14.2194 C.ar    1  UNL1        0.0400
     19 C          66.0307   91.4816   13.5024 C.ar    1  UNL1        0.1386
     20 C          65.5868   92.1073   12.2134 C.ar    1  UNL1        0.0400
     21 C          64.2412   91.7724   11.6415 C.ar    1  UNL1        0.0407
     22 O          67.3764   91.8165   14.0744 O.3     1  UNL1       -0.4792
     23 C          67.4759   92.5158   15.3977 C.3     1  UNL1        0.1661
     24 C          68.8066   93.0015   15.8911 C.3     1  UNL1        0.0472
     25 C          66.2448   92.7293   16.2276 C.3     1  UNL1        0.0472
@<TRIPOS>BOND
     1    10    11    1
     2    11    12    2
     3    11    13   am
     4    13     8    1
     5     8     9    1
     6     8     6    1
     7     6     7    2
     8     7     1    1
     9     1     2   ar
    10     2     3   ar
    11     3     4   ar
    12     4    15    1
    13    15    16    1
    14    16    17   ar
    15    17    18   ar
    16    18    19   ar
    17    19    22    1
    18    22    23    1
    19    23    24    1
    20    23    25    1
    21    19    20   ar
    22    20    21   ar
    23     4     5   ar
    24     5     1   ar
    25    21    16   ar
    26    13    14    1
@<TRIPOS>MOLECULE
*****
 25 26 0 0 0
SMALL
GASTEIGER

@<TRIPOS>ATOM
      1 C          61.9928   86.0955   10.8095 C.ar    1  UNL1        0.0527
      2 C          61.2251   86.1237    9.5211 C.ar    1  UNL1        0.1091
      3 N          61.0029   87.5588    9.1452 N.ar    1  UNL1       -0.2035
      4 C          61.6333   88.4175   10.2013 C.ar    1  UNL1        0.2628
      5 S          62.2451   87.5131   11.2298 S.2     1  UNL1       -0.0283
      6 C          63.2509   84.9934   12.7977 C.2     1  UNL1       -0.0064
      7 C          62.4312   84.8657   11.5479 C.2     1  UNL1        0.0052
      8 C          63.6893   83.7635   13.5360 C.3     1  UNL1        0.0939
      9 C          64.1871   83.8732   14.9467 C.3     1  UNL1        0.0262
     10 C          62.5433   80.0771   12.6160 C.3     1  UNL1        0.0946
     11 C          62.6028   81.4166   13.2883 C.2     1  UNL1        0.2232
     12 O          61.6352   81.7488   14.3853 O.2     1  UNL1       -0.2751
     13 N          63.6298   82.4240   12.8636 N.am    1  UNL1       -0.3022
     14 H          64.2649   82.2060   12.1436 H       1  UNL1        0.1497
     15 O          61.6492   89.9172   10.2246 O.3     1  UNL1       -0.4313
     16 C          62.7692   90.6449   10.9074 C.ar    1  UNL1        0.1479
     17 C          62.9761   90.4864   12.3846 C.ar    1  UNL1        0.0407
     18 C          64.0960   91.2141   13.0673 C.ar    1  UNL1        0.0400
     19 C          65.0091   92.1003   12.2729 C.ar    1  UNL1        0.1386
     20 C          64.8021   92.2588   10.7957 C.ar    1  UNL1        0.0400
     21 C          63.6822   91.5311   10.1130 C.ar    1  UNL1        0.0407
     22 O          66.1290   92.8280   12.9557 O.3     1  UNL1       -0.4792
     23 C          67.3083   92.0650   13.4821 C.3     1  UNL1        0.1661
     24 C          67.3582   91.6644   14.9268 C.3     1  UNL1        0.0472
     25 C          68.4378   91.7027   12.5639 C.3     1  UNL1        0.0472
@<TRIPOS>BOND
     1    10    11    1
     2    11    12    2
     3    11    13   am
     4    13     8    1
     5     8     9    1
     6     8     6    1
     7     6     7    2
     8     7     1    1
     9     1     2   ar
    10     2     3   ar
    11     3     4   ar
    12     4    15    1
    13    15    16    1
    14    16    17   ar
    15    17    18   ar
    16    18    19   ar
    17    19    22    1
    18    22    23    1
    19    23    24    1
    20    23    25    1
    21    19    20   ar
    22    20    21   ar
    23     4     5   ar
    24     5     1   ar
    25    21    16   ar
    26    13    14    1
@<TRIPOS>MOLECULE
*****
 25 26 0 0 0
SMALL
GASTEIGER

@<TRIPOS>ATOM
      1 C          62.3287   90.4915   11.3044 C.ar    1  UNL1        0.0527
      2 C          60.8569   90.3114   11.5316 C.ar    1  UNL1        0.1091
      3 N          60.4231   89.0746   10.8022 N.ar    1  UNL1       -0.2035
      4 C          61.6267   88.4902   10.1242 C.ar    1  UNL1        0.2628
      5 S          62.8044   89.3659   10.4346 S.2     1  UNL1       -0.0283
      6 C          64.6454   91.6407   11.5530 C.2     1  UNL1       -0.0064
      7 C          63.1758   91.6021   11.8511 C.2     1  UNL1        0.0052
      8 C          65.4926   92.7513   12.0997 C.3     1  UNL1        0.0939
      9 C          65.8197   93.9372   11.2414 C.3     1  UNL1        0.0262
     10 C          67.9268   92.1112   15.1680 C.3     1  UNL1        0.0946
     11 C          67.4067   92.1865   13.7631 C.2     1  UNL1        0.2232
     12 O          68.2808   91.7724   12.6166 O.2     1  UNL1       -0.2751
     13 N          66.0126   92.6760   13.5046 N.am    1  UNL1       -0.3022
     14 H          65.4389   92.9478   14.2571 H       1  UNL1        0.1497
     15 O          61.6488   87.2482    9.2834 O.3     1  UNL1       -0.4313
     16 C          62.2382   85.9821    9.8310 C.ar    1  UNL1        0.1479
     17 C          63.1110   85.1246    8.9634 C.ar    1  UNL1        0.0407
     18 C          63.7003   83.8586    9.5110 C.ar    1  UNL1        0.0400
     19 C          63.4169   83.4502   10.9262 C.ar    1  UNL1        0.1386
     20 C          62.5442   84.3078   11.7938 C.ar    1  UNL1        0.0400
     21 C          61.9548   85.5737   11.2462 C.ar    1  UNL1        0.0407
     22 O          64.0063   82.1841   11.4738 O.3     1  UNL1       -0.4792
     23 C          63.4567   81.5848   12.7342 C.3     1  UNL1        0.1661
     24 C          62.5977   80.3569   12.6684 C.3     1  UNL1        0.0472
     25 C          63.7661   82.2134   14.0606 C.3     1  UNL1        0.0472
@<TRIPOS>BOND
     1    10    11    1
     2    11    12    2
     3    11    13   am
     4    13     8    1
     5     8     9    1
     6     8     6    1
     7     6     7    2
     8     7     1    1
     9     1     2   ar
    10     2     3   ar
    11     3     4   ar
    12     4    15    1
    13    15    16    1
    14    16    17   ar
    15    17    18   ar
    16    18    19   ar
    17    19    22    1
    18    22    23    1
    19    23    24    1
    20    23    25    1
    21    19    20   ar
    22    20    21   ar
    23     4     5   ar
    24     5     1   ar
    25    21    16   ar
    26    13    14    1
