@<TRIPOS>MOLECULE
*****
 44 48 0 0 0
SMALL
GASTEIGER

@<TRIPOS>ATOM
      1 N          63.5578   91.0379   11.6338 N.ar    1  UNL1       -0.2444
      2 C          64.1307   92.1357   10.7874 C.ar    1  UNL1        0.3387
      3 O          63.5692   92.4007    9.4219 O.2     1  UNL1       -0.2458
      4 N          65.2652   92.9685   11.3063 N.ar    1  UNL1       -0.2502
      5 C          65.8268   92.7035   12.6717 C.ar    1  UNL1        0.2686
      6 O          66.9613   93.5363   13.1907 O.2     1  UNL1       -0.2667
      7 C          65.2538   91.6056   13.5183 C.ar    1  UNL1        0.1100
      8 C          65.8154   91.3406   14.8837 C.ar    1  UNL1        0.1096
      9 N          65.2424   90.2428   15.7301 N.ar    1  UNL1       -0.2118
     10 C          64.1080   89.4100   15.2111 C.ar    1  UNL1        0.2221
     11 N          63.5464   89.6750   13.8457 N.ar    1  UNL1       -0.1955
     12 C          64.1193   90.7728   12.9993 C.ar    1  UNL1        0.1600
     13 C          61.5558   88.2680    9.6164 C.ar    1  UNL1        0.0520
     14 C          60.1543   88.5394   10.0769 C.ar    1  UNL1        0.0148
     15 C          59.8872   89.6437   11.0563 C.ar    1  UNL1        0.0028
     16 C          61.0217   90.4765   11.5753 C.ar    1  UNL1        0.0178
     17 C          62.4233   90.2050   11.1148 C.ar    1  UNL1        0.0708
     18 C          62.6903   89.1008   10.1354 C.ar    1  UNL1        0.0324
     19 C          62.3823   85.8564    9.1148 C.2     1  UNL1        0.2496
     20 O          62.6745   85.6535   10.5720 O.2     1  UNL1       -0.2698
     21 N          61.8229   87.1637    8.6370 N.am    1  UNL1       -0.2803
     22 H          61.6311   87.2969    7.6806 H       1  UNL1        0.1552
     23 C          62.0866   84.8286    6.7471 C.2     1  UNL1        0.0048
     24 C          62.6493   84.7522    8.1354 C.2     1  UNL1        0.0580
     25 C          65.8382   94.0664   10.4598 C.3     1  UNL1        0.0929
     26 C          66.9431   93.7671    9.4905 C.3     1  UNL1        0.0247
     27 C          65.3062   95.4635   10.5827 C.3     1  UNL1        0.0247
     28 N          63.5350   88.3121   16.0576 N.pl3   1  UNL1       -0.2801
     29 H          63.2612   88.4975   16.9849 H       1  UNL1        0.1552
     30 C          63.3793   86.9320   15.4913 C.ar    1  UNL1        0.0850
     31 C          64.0752   86.5620   14.2150 C.ar    1  UNL1        0.0190
     32 C          63.9195   85.1818   13.6487 C.ar    1  UNL1        0.0160
     33 C          63.0678   84.1715   14.3586 C.ar    1  UNL1        0.0510
     34 C          62.3719   84.5414   15.6348 C.ar    1  UNL1        0.0527
     35 C          62.5276   85.9216   16.2012 C.ar    1  UNL1        0.1533
     36 N          62.9121   82.7913   13.7922 N.pl3   1  UNL1       -0.3046
     37 C          63.7485   82.3614   12.6236 C.3     1  UNL1        0.1081
     38 C          63.5927   80.9812   12.0572 C.3     1  UNL1        0.0938
     39 N          62.6007   80.0309   12.6595 N.3     1  UNL1       -0.2686
     40 C          62.4449   78.6507   12.0931 C.3     1  UNL1        0.0897
     41 C          61.7643   80.4608   13.8281 C.3     1  UNL1        0.0938
     42 C          61.9200   81.8410   14.3945 C.3     1  UNL1        0.1081
     43 O          61.8316   86.2915   17.4774 O.3     1  UNL1       -0.4701
     44 C          62.6297   86.7562   18.6594 C.3     1  UNL1        0.2525
@<TRIPOS>BOND
     1    23    24    2
     2    24    19    1
     3    19    20    2
     4    19    21   am
     5    21    13    1
     6    13    14   ar
     7    14    15   ar
     8    15    16   ar
     9    16    17   ar
    10    17     1    1
    11     1     2   ar
    12     2     3    2
    13     2     4   ar
    14     4    25    1
    15    25    26    1
    16    25    27    1
    17     4     5   ar
    18     5     6    2
    19     5     7   ar
    20     7     8   ar
    21     8     9   ar
    22     9    10   ar
    23    10    28    1
    24    28    30    1
    25    30    31   ar
    26    31    32   ar
    27    32    33   ar
    28    33    36    1
    29    36    37    1
    30    37    38    1
    31    38    39    1
    32    39    40    1
    33    39    41    1
    34    41    42    1
    35    33    34   ar
    36    34    35   ar
    37    35    43    1
    38    43    44    1
    39    10    11   ar
    40    11    12   ar
    41    17    18   ar
    42    18    13   ar
    43    12     1   ar
    44    12     7   ar
    45    35    30   ar
    46    42    36    1
    47    21    22    1
    48    28    29    1
@<TRIPOS>MOLECULE
*****
 44 48 0 0 0
SMALL
GASTEIGER

@<TRIPOS>ATOM
      1 N          62.8708   85.7809   12.2852 N.ar    1  UNL1       -0.2444
      2 C          62.9676   84.2903   12.1490 C.ar    1  UNL1        0.3387
      3 O          62.4744   83.6175   10.9023 O.2     1  UNL1       -0.2458
      4 N          63.5575   83.4724   13.2594 N.ar    1  UNL1       -0.2502
      5 C          64.0507   84.1452   14.5061 C.ar    1  UNL1        0.2686
      6 O          64.6407   83.3273   15.6165 O.2     1  UNL1       -0.2667
      7 C          63.9539   85.6359   14.6423 C.ar    1  UNL1        0.1100
      8 C          64.4471   86.3086   15.8890 C.ar    1  UNL1        0.1096
      9 N          64.3503   87.7993   16.0252 N.ar    1  UNL1       -0.2118
     10 C          63.7603   88.6171   14.9148 C.ar    1  UNL1        0.2221
     11 N          63.2672   87.9444   13.6681 N.ar    1  UNL1       -0.1955
     12 C          63.3640   86.4538   13.5319 C.ar    1  UNL1        0.1600
     13 C          61.1971   86.7439    8.8180 C.ar    1  UNL1        0.0520
     14 C          61.1009   88.2345    8.9540 C.ar    1  UNL1        0.0148
     15 C          61.5946   88.9074   10.2004 C.ar    1  UNL1        0.0028
     16 C          62.1846   88.0896   11.3108 C.ar    1  UNL1        0.0178
     17 C          62.2808   86.5988   11.1748 C.ar    1  UNL1        0.0708
     18 C          61.7871   85.9260    9.9284 C.ar    1  UNL1        0.0324
     19 C          61.5488   85.0334    6.8942 C.2     1  UNL1        0.2496
     20 O          62.8880   84.6688    7.4633 O.2     1  UNL1       -0.2698
     21 N          60.7034   86.0710    7.5716 N.am    1  UNL1       -0.2803
     22 H          59.8245   86.3103    7.1981 H       1  UNL1        0.1552
     23 C          62.0094   84.0572    4.5311 C.2     1  UNL1        0.0048
     24 C          61.0551   84.3606    5.6479 C.2     1  UNL1        0.0580
     25 C          63.6543   81.9817   13.1232 C.3     1  UNL1        0.0929
     26 C          64.7670   81.3724   12.3228 C.3     1  UNL1        0.0247
     27 C          62.6384   81.1004   13.7873 C.3     1  UNL1        0.0247
     28 N          63.6636   90.1078   15.0510 N.pl3   1  UNL1       -0.2801
     29 H          63.2057   90.5024   15.8281 H       1  UNL1        0.1552
     30 C          64.2644   90.9973   14.0033 C.ar    1  UNL1        0.0850
     31 C          63.7407   90.9609   12.5982 C.ar    1  UNL1        0.0190
     32 C          64.3416   91.8504   11.5505 C.ar    1  UNL1        0.0160
     33 C          65.4662   92.7764   11.9079 C.ar    1  UNL1        0.0510
     34 C          65.9900   92.8128   13.3130 C.ar    1  UNL1        0.0527
     35 C          65.3891   91.9233   14.3607 C.ar    1  UNL1        0.1533
     36 N          66.0671   93.6658   10.8602 N.pl3   1  UNL1       -0.3046
     37 C          67.1313   93.1350    9.9461 C.3     1  UNL1        0.1081
     38 C          67.7322   94.0245    8.8983 C.3     1  UNL1        0.0938
     39 N          67.2688   95.4449    8.7647 N.3     1  UNL1       -0.2686
     40 C          67.8697   96.3344    7.7170 C.3     1  UNL1        0.0897
     41 C          66.2046   95.9757    9.6789 C.3     1  UNL1        0.0938
     42 C          65.6038   95.0863   10.7266 C.3     1  UNL1        0.1081
     43 O          65.9129   91.9598   15.7658 O.3     1  UNL1       -0.4701
     44 C          67.1309   92.7724   16.0914 C.3     1  UNL1        0.2525
@<TRIPOS>BOND
     1    23    24    2
     2    24    19    1
     3    19    20    2
     4    19    21   am
     5    21    13    1
     6    13    14   ar
     7    14    15   ar
     8    15    16   ar
     9    16    17   ar
    10    17     1    1
    11     1     2   ar
    12     2     3    2
    13     2     4   ar
    14     4    25    1
    15    25    26    1
    16    25    27    1
    17     4     5   ar
    18     5     6    2
    19     5     7   ar
    20     7     8   ar
    21     8     9   ar
    22     9    10   ar
    23    10    28    1
    24    28    30    1
    25    30    31   ar
    26    31    32   ar
    27    32    33   ar
    28    33    36    1
    29    36    37    1
    30    37    38    1
    31    38    39    1
    32    39    40    1
    33    39    41    1
    34    41    42    1
    35    33    34   ar
    36    34    35   ar
    37    35    43    1
    38    43    44    1
    39    10    11   ar
    40    11    12   ar
    41    17    18   ar
    42    18    13   ar
    43    12     1   ar
    44    12     7   ar
    45    35    30   ar
    46    42    36    1
    47    21    22    1
    48    28    29    1
@<TRIPOS>MOLECULE
*****
 44 48 0 0 0
SMALL
GASTEIGER

@<TRIPOS>ATOM
      1 N          63.8961   91.0860   11.7655 N.ar    1  UNL1       -0.2444
      2 C          64.4290   92.1725   10.8793 C.ar    1  UNL1        0.3387
      3 O          64.0072   92.2420    9.4414 O.2     1  UNL1       -0.2458
      4 N          65.3835   93.1896   11.4309 N.ar    1  UNL1       -0.2502
      5 C          65.8052   93.1202   12.8687 C.ar    1  UNL1        0.2686
      6 O          66.7598   94.1374   13.4203 O.2     1  UNL1       -0.2667
      7 C          65.2724   92.0336   13.7550 C.ar    1  UNL1        0.1100
      8 C          65.6941   91.9642   15.1928 C.ar    1  UNL1        0.1096
      9 N          65.1612   90.8777   16.0790 N.ar    1  UNL1       -0.2118
     10 C          64.2066   89.8606   15.5274 C.ar    1  UNL1        0.2221
     11 N          63.7849   89.9300   14.0896 N.ar    1  UNL1       -0.1955
     12 C          64.3178   91.0165   13.2034 C.ar    1  UNL1        0.1600
     13 C          60.9932   89.4483    9.6111 C.ar    1  UNL1        0.0520
     14 C          61.0324   88.0346   10.1108 C.ar    1  UNL1        0.0148
     15 C          62.0261   87.6379   11.1621 C.ar    1  UNL1        0.0028
     16 C          62.9807   88.6550   11.7137 C.ar    1  UNL1        0.0178
     17 C          62.9415   90.0688   11.2140 C.ar    1  UNL1        0.0708
     18 C          61.9478   90.4654   10.1627 C.ar    1  UNL1        0.0324
     19 C          59.5836   88.8574    7.5102 C.2     1  UNL1        0.2496
     20 O          60.1615   87.4731    7.5119 O.2     1  UNL1       -0.2698
     21 N          59.9995   89.8450    8.5598 N.am    1  UNL1       -0.2803
     22 H          59.6202   90.7535    8.5587 H       1  UNL1        0.1552
     23 C          58.7991   90.5091    5.6645 C.2     1  UNL1        0.0048
     24 C          58.5899   89.2540    6.4589 C.2     1  UNL1        0.0580
     25 C          65.9164   94.2762   10.5446 C.3     1  UNL1        0.0929
     26 C          65.2903   95.6390   10.5696 C.3     1  UNL1        0.0247
     27 C          67.0754   93.9999    9.6333 C.3     1  UNL1        0.0247
     28 N          63.6738   88.7740   16.4137 N.pl3   1  UNL1       -0.2801
     29 H          63.4304   88.9745   17.3464 H       1  UNL1        0.1552
     30 C          63.5117   87.3819   15.8791 C.ar    1  UNL1        0.0850
     31 C          64.2346   86.9689   14.6313 C.ar    1  UNL1        0.0190
     32 C          64.0725   85.5767   14.0966 C.ar    1  UNL1        0.0160
     33 C          63.1876   84.5978   14.8097 C.ar    1  UNL1        0.0510
     34 C          62.4647   85.0108   16.0575 C.ar    1  UNL1        0.0527
     35 C          62.6268   86.4029   16.5921 C.ar    1  UNL1        0.1533
     36 N          63.0255   83.2057   14.2750 N.pl3   1  UNL1       -0.3046
     37 C          61.8536   82.3711   14.6992 C.3     1  UNL1        0.1081
     38 C          61.6916   80.9790   14.1645 C.3     1  UNL1        0.0938
     39 N          62.7015   80.4216   13.2056 N.3     1  UNL1       -0.2686
     40 C          62.5394   79.0295   12.6710 C.3     1  UNL1        0.0897
     41 C          63.8734   81.2562   12.7815 C.3     1  UNL1        0.0938
     42 C          64.0355   82.6483   13.3162 C.3     1  UNL1        0.1081
     43 O          61.9039   86.8159   17.8399 O.3     1  UNL1       -0.4701
     44 C          62.6560   86.9590   19.1298 C.3     1  UNL1        0.2525
@<TRIPOS>BOND
     1    23    24    2
     2    24    19    1
     3    19    20    2
     4    19    21   am
     5    21    13    1
     6    13    14   ar
     7    14    15   ar
     8    15    16   ar
     9    16    17   ar
    10    17     1    1
    11     1     2   ar
    12     2     3    2
    13     2     4   ar
    14     4    25    1
    15    25    26    1
    16    25    27    1
    17     4     5   ar
    18     5     6    2
    19     5     7   ar
    20     7     8   ar
    21     8     9   ar
    22     9    10   ar
    23    10    28    1
    24    28    30    1
    25    30    31   ar
    26    31    32   ar
    27    32    33   ar
    28    33    36    1
    29    36    37    1
    30    37    38    1
    31    38    39    1
    32    39    40    1
    33    39    41    1
    34    41    42    1
    35    33    34   ar
    36    34    35   ar
    37    35    43    1
    38    43    44    1
    39    10    11   ar
    40    11    12   ar
    41    17    18   ar
    42    18    13   ar
    43    12     1   ar
    44    12     7   ar
    45    35    30   ar
    46    42    36    1
    47    21    22    1
    48    28    29    1
@<TRIPOS>MOLECULE
*****
 44 48 0 0 0
SMALL
GASTEIGER

@<TRIPOS>ATOM
      1 N          62.8279   85.2964   12.0758 N.ar    1  UNL1       -0.2444
      2 C          63.0464   83.8144   12.0005 C.ar    1  UNL1        0.3387
      3 O          62.6154   83.0536   10.7816 O.2     1  UNL1       -0.2458
      4 N          63.6960   83.0930   13.1440 N.ar    1  UNL1       -0.2502
      5 C          64.1270   83.8536   14.3628 C.ar    1  UNL1        0.2686
      6 O          64.7766   83.1323   15.5064 O.2     1  UNL1       -0.2667
      7 C          63.9085   85.3358   14.4382 C.ar    1  UNL1        0.1100
      8 C          64.3395   86.0964   15.6570 C.ar    1  UNL1        0.1096
      9 N          64.1210   87.5785   15.7323 N.ar    1  UNL1       -0.2118
     10 C          63.4714   88.2999   14.5887 C.ar    1  UNL1        0.2221
     11 N          63.0404   87.5392   13.3699 N.ar    1  UNL1       -0.1955
     12 C          63.2589   86.0572   13.2946 C.ar    1  UNL1        0.1600
     13 C          60.5007   87.7979   10.0568 C.ar    1  UNL1        0.0520
     14 C          60.8792   87.4606    8.6452 C.ar    1  UNL1        0.0148
     15 C          61.9074   86.4018    8.3770 C.ar    1  UNL1        0.0028
     16 C          62.5570   85.6804    9.5205 C.ar    1  UNL1        0.0178
     17 C          62.1783   86.0178   10.9322 C.ar    1  UNL1        0.0708
     18 C          61.1502   87.0766   11.2003 C.ar    1  UNL1        0.0324
     19 C          59.5126   89.6334   11.6077 C.2     1  UNL1        0.2496
     20 O          60.5810   89.3512   12.6222 O.2     1  UNL1       -0.2698
     21 N          59.4725   88.8568   10.3250 N.am    1  UNL1       -0.2803
     22 H          58.7713   89.0420    9.6592 H       1  UNL1        0.1552
     23 C          58.7754   92.1236   11.5346 C.2     1  UNL1        0.0048
     24 C          58.4845   90.6921   11.8759 C.2     1  UNL1        0.0580
     25 C          63.9145   81.6108   13.0687 C.3     1  UNL1        0.0929
     26 C          65.2590   81.0697   12.6822 C.3     1  UNL1        0.0247
     27 C          62.7885   80.6700   13.3798 C.3     1  UNL1        0.0247
     28 N          63.2529   89.7820   14.6640 N.pl3   1  UNL1       -0.2801
     29 H          62.6603   90.1578   15.3547 H       1  UNL1        0.1552
     30 C          63.9372   90.6916   13.6872 C.ar    1  UNL1        0.0850
     31 C          63.5346   90.6795   12.2423 C.ar    1  UNL1        0.0190
     32 C          64.2190   91.5892   11.2654 C.ar    1  UNL1        0.0160
     33 C          65.3058   92.5109   11.7334 C.ar    1  UNL1        0.0510
     34 C          65.7084   92.5230   13.1784 C.ar    1  UNL1        0.0527
     35 C          65.0241   91.6134   14.1552 C.ar    1  UNL1        0.1533
     36 N          65.9901   93.4205   10.7566 N.pl3   1  UNL1       -0.3046
     37 C          65.5108   94.8312   10.5827 C.3     1  UNL1        0.1081
     38 C          66.1952   95.7408    9.6058 C.3     1  UNL1        0.0938
     39 N          67.3588   95.2397    8.8028 N.3     1  UNL1       -0.2686
     40 C          68.0431   96.1493    7.8259 C.3     1  UNL1        0.0897
     41 C          67.8381   93.8290    8.9766 C.3     1  UNL1        0.0938
     42 C          67.1538   92.9194    9.9535 C.3     1  UNL1        0.1081
     43 O          65.4266   91.6256   15.6001 O.3     1  UNL1       -0.4701
     44 C          66.4966   92.5646   16.0728 C.3     1  UNL1        0.2525
@<TRIPOS>BOND
     1    23    24    2
     2    24    19    1
     3    19    20    2
     4    19    21   am
     5    21    13    1
     6    13    14   ar
     7    14    15   ar
     8    15    16   ar
     9    16    17   ar
    10    17     1    1
    11     1     2   ar
    12     2     3    2
    13     2     4   ar
    14     4    25    1
    15    25    26    1
    16    25    27    1
    17     4     5   ar
    18     5     6    2
    19     5     7   ar
    20     7     8   ar
    21     8     9   ar
    22     9    10   ar
    23    10    28    1
    24    28    30    1
    25    30    31   ar
    26    31    32   ar
    27    32    33   ar
    28    33    36    1
    29    36    37    1
    30    37    38    1
    31    38    39    1
    32    39    40    1
    33    39    41    1
    34    41    42    1
    35    33    34   ar
    36    34    35   ar
    37    35    43    1
    38    43    44    1
    39    10    11   ar
    40    11    12   ar
    41    17    18   ar
    42    18    13   ar
    43    12     1   ar
    44    12     7   ar
    45    35    30   ar
    46    42    36    1
    47    21    22    1
    48    28    29    1
@<TRIPOS>MOLECULE
*****
 44 48 0 0 0
SMALL
GASTEIGER

@<TRIPOS>ATOM
      1 N          62.5750   85.6401   12.0934 N.ar    1  UNL1       -0.2444
      2 C          62.8548   84.1667   12.0704 C.ar    1  UNL1        0.3387
      3 O          62.2417   83.3033   11.0079 O.2     1  UNL1       -0.2458
      4 N          63.7477   83.5565   13.1098 N.ar    1  UNL1       -0.2502
      5 C          64.3608   84.4198   14.1723 C.ar    1  UNL1        0.2686
      6 O          65.2536   83.8096   15.2117 O.2     1  UNL1       -0.2667
      7 C          64.0810   85.8933   14.1953 C.ar    1  UNL1        0.1100
      8 C          64.6940   86.7566   15.2578 C.ar    1  UNL1        0.1096
      9 N          64.4142   88.2301   15.2808 N.ar    1  UNL1       -0.2118
     10 C          63.5214   88.8402   14.2413 C.ar    1  UNL1        0.2221
     11 N          62.9083   87.9770   13.1789 N.ar    1  UNL1       -0.1955
     12 C          63.1881   86.5035   13.1559 C.ar    1  UNL1        0.1600
     13 C          60.8733   86.3997    8.5895 C.ar    1  UNL1        0.0520
     14 C          59.8964   87.4707    8.9750 C.ar    1  UNL1        0.0148
     15 C          59.8123   87.9316   10.4001 C.ar    1  UNL1        0.0028
     16 C          60.7052   87.3214   11.4395 C.ar    1  UNL1        0.0178
     17 C          61.6821   86.2503   11.0539 C.ar    1  UNL1        0.0708
     18 C          61.7661   85.7895    9.6290 C.ar    1  UNL1        0.0324
     19 C          62.0801   85.0438    6.7307 C.2     1  UNL1        0.2496
     20 O          63.1188   84.6095    7.7220 O.2     1  UNL1       -0.2698
     21 N          60.9573   85.9389    7.1645 N.am    1  UNL1       -0.2803
     22 H          60.2756   86.2239    6.5139 H       1  UNL1        0.1552
     23 C          61.2042   83.5503    4.7936 C.2     1  UNL1        0.0048
     24 C          62.1642   84.5829    5.3058 C.2     1  UNL1        0.0580
     25 C          64.0275   82.0830   13.0868 C.3     1  UNL1        0.0929
     26 C          63.1984   81.1491   13.9177 C.3     1  UNL1        0.0247
     27 C          65.1364   81.5434   12.2329 C.3     1  UNL1        0.0247
     28 N          63.2416   90.3138   14.2644 N.pl3   1  UNL1       -0.2801
     29 H          62.5939   90.6819   14.9080 H       1  UNL1        0.1552
     30 C          63.9486   91.2265   13.3068 C.ar    1  UNL1        0.0850
     31 C          65.1425   92.0121   13.7622 C.ar    1  UNL1        0.0190
     32 C          65.8495   92.9248   12.8044 C.ar    1  UNL1        0.0160
     33 C          65.3626   93.0519   11.3914 C.ar    1  UNL1        0.0510
     34 C          64.1687   92.2663   10.9360 C.ar    1  UNL1        0.0527
     35 C          63.4617   91.3536   11.8936 C.ar    1  UNL1        0.1533
     36 N          66.0696   93.9646   10.4338 N.pl3   1  UNL1       -0.3046
     37 C          65.6868   95.4129   10.3568 C.3     1  UNL1        0.1081
     38 C          66.3939   96.3256    9.3991 C.3     1  UNL1        0.0938
     39 N          67.4836   95.7900    8.5185 N.3     1  UNL1       -0.2686
     40 C          68.1906   96.7027    7.5609 C.3     1  UNL1        0.0897
     41 C          67.8664   94.3418    8.5955 C.3     1  UNL1        0.0938
     42 C          67.1594   93.4291    9.5531 C.3     1  UNL1        0.1081
     43 O          62.2677   90.5680   11.4382 O.3     1  UNL1       -0.4701
     44 C          62.0602   90.2982    9.9774 C.3     1  UNL1        0.2525
@<TRIPOS>BOND
     1    23    24    2
     2    24    19    1
     3    19    20    2
     4    19    21   am
     5    21    13    1
     6    13    14   ar
     7    14    15   ar
     8    15    16   ar
     9    16    17   ar
    10    17     1    1
    11     1     2   ar
    12     2     3    2
    13     2     4   ar
    14     4    25    1
    15    25    26    1
    16    25    27    1
    17     4     5   ar
    18     5     6    2
    19     5     7   ar
    20     7     8   ar
    21     8     9   ar
    22     9    10   ar
    23    10    28    1
    24    28    30    1
    25    30    31   ar
    26    31    32   ar
    27    32    33   ar
    28    33    36    1
    29    36    37    1
    30    37    38    1
    31    38    39    1
    32    39    40    1
    33    39    41    1
    34    41    42    1
    35    33    34   ar
    36    34    35   ar
    37    35    43    1
    38    43    44    1
    39    10    11   ar
    40    11    12   ar
    41    17    18   ar
    42    18    13   ar
    43    12     1   ar
    44    12     7   ar
    45    35    30   ar
    46    42    36    1
    47    21    22    1
    48    28    29    1
@<TRIPOS>MOLECULE
*****
 44 48 0 0 0
SMALL
GASTEIGER

@<TRIPOS>ATOM
      1 N          64.6141   90.8436   14.0227 N.ar    1  UNL1       -0.2444
      2 C          65.5605   91.8769   14.5579 C.ar    1  UNL1        0.3387
      3 O          66.0221   91.8046   15.9834 O.2     1  UNL1       -0.2458
      4 N          66.0454   92.9826   13.6678 N.ar    1  UNL1       -0.2502
      5 C          65.5839   93.0550   12.2424 C.ar    1  UNL1        0.2686
      6 O          66.0688   94.1607   11.3523 O.2     1  UNL1       -0.2667
      7 C          64.6375   92.0216   11.7071 C.ar    1  UNL1        0.1100
      8 C          64.1760   92.0940   10.2817 C.ar    1  UNL1        0.1096
      9 N          63.2296   91.0607    9.7465 N.ar    1  UNL1       -0.2118
     10 C          62.7447   89.9550   10.6366 C.ar    1  UNL1        0.2221
     11 N          63.2062   89.8826   12.0620 N.ar    1  UNL1       -0.1955
     12 C          64.1526   90.9159   12.5972 C.ar    1  UNL1        0.1600
     13 C          64.1257   87.2284   15.5852 C.ar    1  UNL1        0.0520
     14 C          63.1594   87.5265   16.6930 C.ar    1  UNL1        0.0148
     15 C          62.6780   88.9304   16.9108 C.ar    1  UNL1        0.0028
     16 C          63.1629   90.0361   16.0207 C.ar    1  UNL1        0.0178
     17 C          64.1292   89.7379   14.9128 C.ar    1  UNL1        0.0708
     18 C          64.6106   88.3341   14.6951 C.ar    1  UNL1        0.0324
     19 C          63.6435   84.6785   15.4588 C.2     1  UNL1        0.2496
     20 O          62.1985   84.9365   15.7680 O.2     1  UNL1       -0.2698
     21 N          64.6071   85.8245   15.3674 N.am    1  UNL1       -0.2803
     22 H          65.5555   85.6552   15.1645 H       1  UNL1        0.1552
     23 C          64.9849   82.9521   14.0551 C.2     1  UNL1        0.0048
     24 C          64.1249   83.2747   15.2410 C.2     1  UNL1        0.0580
     25 C          66.9919   94.0160   14.2031 C.3     1  UNL1        0.0929
     26 C          68.0637   93.6197   15.1747 C.3     1  UNL1        0.0247
     27 C          66.8664   95.4456   13.7668 C.3     1  UNL1        0.0247
     28 N          61.7982   88.9217   10.1013 N.pl3   1  UNL1       -0.2801
     29 H          61.0854   89.1844    9.4751 H       1  UNL1        0.1552
     30 C          61.9379   87.4881   10.5201 C.ar    1  UNL1        0.0850
     31 C          62.5495   87.1507   11.8475 C.ar    1  UNL1        0.0190
     32 C          62.6891   85.7171   12.2662 C.ar    1  UNL1        0.0160
     33 C          62.2171   84.6209   11.3576 C.ar    1  UNL1        0.0510
     34 C          61.6054   84.9584   10.0302 C.ar    1  UNL1        0.0527
     35 C          61.4658   86.3919    9.6114 C.ar    1  UNL1        0.1533
     36 N          62.3567   83.1874   11.7764 N.pl3   1  UNL1       -0.3046
     37 C          63.1749   82.2407   10.9493 C.3     1  UNL1        0.1081
     38 C          63.3145   80.8071   11.3681 C.3     1  UNL1        0.0938
     39 N          62.6359   80.3203   12.6140 N.3     1  UNL1       -0.2686
     40 C          62.7755   78.8867   13.0328 C.3     1  UNL1        0.0897
     41 C          61.8176   81.2670   13.4412 C.3     1  UNL1        0.0938
     42 C          61.6780   82.7005   13.0224 C.3     1  UNL1        0.1081
     43 O          60.8542   86.7293    8.2840 O.3     1  UNL1       -0.4701
     44 C          59.3623   86.7780    8.1363 C.3     1  UNL1        0.2525
@<TRIPOS>BOND
     1    23    24    2
     2    24    19    1
     3    19    20    2
     4    19    21   am
     5    21    13    1
     6    13    14   ar
     7    14    15   ar
     8    15    16   ar
     9    16    17   ar
    10    17     1    1
    11     1     2   ar
    12     2     3    2
    13     2     4   ar
    14     4    25    1
    15    25    26    1
    16    25    27    1
    17     4     5   ar
    18     5     6    2
    19     5     7   ar
    20     7     8   ar
    21     8     9   ar
    22     9    10   ar
    23    10    28    1
    24    28    30    1
    25    30    31   ar
    26    31    32   ar
    27    32    33   ar
    28    33    36    1
    29    36    37    1
    30    37    38    1
    31    38    39    1
    32    39    40    1
    33    39    41    1
    34    41    42    1
    35    33    34   ar
    36    34    35   ar
    37    35    43    1
    38    43    44    1
    39    10    11   ar
    40    11    12   ar
    41    17    18   ar
    42    18    13   ar
    43    12     1   ar
    44    12     7   ar
    45    35    30   ar
    46    42    36    1
    47    21    22    1
    48    28    29    1
