@<TRIPOS>MOLECULE
*****
 39 44 0 0 0
SMALL
GASTEIGER

@<TRIPOS>ATOM
      1 C          62.6249   90.1587   11.4724 C.3     1  UNL1        0.0745
      2 C          61.2172   90.5113   11.8517 C.3     1  UNL1        0.0356
      3 C          60.0952   90.2581   10.8890 C.3     1  UNL1        0.0594
      4 C          59.3302   89.8464    9.6662 C.3     1  UNL1        0.0174
      5 C          60.3080   89.2931    8.6722 C.3     1  UNL1        0.0174
      6 C          61.6772   89.3629    9.2808 C.3     1  UNL1        0.0594
      7 C          62.9107   89.5530   10.1302 C.3     1  UNL1        0.0356
      8 N          61.5457   89.9593   10.6508 N.3     1  UNL1       -0.2715
      9 O          64.3034   92.6306   11.2032 O.2     1  UNL1       -0.2701
     10 C          64.5862   91.6479   12.3006 C.2     1  UNL1        0.2463
     11 N          63.7470   90.4119   12.4352 N.am    1  UNL1       -0.3024
     12 H          63.9325   89.7669   13.1555 H       1  UNL1        0.1497
     13 C          65.7082   91.9011   13.2634 C.ar    1  UNL1        0.0699
     14 C          65.5271   91.6009   14.7219 C.ar    1  UNL1        0.0818
     15 C          66.6491   91.8541   15.6846 C.ar    1  UNL1        0.3019
     16 N          67.9522   92.4076   15.1890 N.ar    1  UNL1       -0.1518
     17 O          69.0742   92.6608   16.1517 O.co2   1  UNL1       -0.6187
     18 C          68.1333   92.7077   13.7305 C.ar    1  UNL1        0.3063
     19 C          67.0112   92.4545   12.7677 C.ar    1  UNL1        0.1289
     20 C          67.1923   92.7546   11.3092 C.2     1  UNL1        0.2552
     21 O          67.7299   91.4976   10.6921 O.2     1  UNL1       -0.2697
     22 N          66.8434   94.1118   10.7739 N.am    1  UNL1       -0.2759
     23 C          66.3135   95.1687   11.6970 C.3     1  UNL1        0.0937
     24 C          65.9647   96.5258   11.1616 C.3     1  UNL1        0.0216
     25 C          66.1457   96.8260    9.7031 C.3     1  UNL1        0.0035
     26 C          66.6757   95.7690    8.7800 C.3     1  UNL1        0.0216
     27 C          67.0245   94.4119    9.3154 C.3     1  UNL1        0.0937
     28 C          62.6677   90.2125   11.6135 C.3     1  UNL1        0.0991
     29 C          63.1566   89.1078   12.5028 C.ar    1  UNL1       -0.0061
     30 C          63.8400   89.4341   13.7976 C.ar    1  UNL1       -0.0029
     31 C          64.3288   88.3294   14.6868 C.ar    1  UNL1       -0.0002
     32 C          64.1343   86.8985   14.2812 C.ar    1  UNL1        0.0022
     33 C          64.6232   85.7938   15.1705 C.ar    1  UNL1        0.0296
     34 C          64.4286   84.3628   14.7649 C.ar    1  UNL1        0.1401
     35 F          64.9174   83.2581   15.6541 F       1  UNL1       -0.2042
     36 C          63.7451   84.0365   13.4701 C.ar    1  UNL1        0.0296
     37 C          63.2563   85.1412   12.5809 C.ar    1  UNL1        0.0023
     38 C          63.4509   86.5722   12.9864 C.ar    1  UNL1       -0.0001
     39 C          62.9620   87.6768   12.0973 C.ar    1  UNL1       -0.0029
@<TRIPOS>UNITY_ATOM_ATTR
16 1
charge 1
17 1
charge -1
@<TRIPOS>BOND
     1     9    10    2
     2    10    11   am
     3     1    11    1
     4     1     2    1
     5     3     2    1
     6     3     4    1
     7     4     5    1
     8     6     5    1
     9     6     7    1
    10     6     8    1
    11     8    28    1
    12    28    29    1
    13    29    30   ar
    14    30    31   ar
    15    31    32   ar
    16    32    33   ar
    17    33    34   ar
    18    34    35    1
    19    34    36   ar
    20    36    37   ar
    21    37    38   ar
    22    38    39   ar
    23    10    13    1
    24    13    14   ar
    25    14    15   ar
    26    15    16   ar
    27    16    17    1
    28    16    18   ar
    29    18    19   ar
    30    19    20    1
    31    20    21    2
    32    20    22   am
    33    22    23    1
    34    23    24    1
    35    24    25    1
    36    25    26    1
    37    26    27    1
    38     7     1    1
    39    39    29   ar
    40    19    13   ar
    41    27    22    1
    42     8     3    1
    43    38    32   ar
    44    11    12    1
@<TRIPOS>MOLECULE
*****
 39 44 0 0 0
SMALL
GASTEIGER

@<TRIPOS>ATOM
      1 C          67.0948   92.6154   13.8069 C.3     1  UNL1        0.0745
      2 C          66.8882   93.6472   14.8759 C.3     1  UNL1        0.0356
      3 C          68.0243   94.0319   15.7765 C.3     1  UNL1        0.0594
      4 C          69.3812   94.0984   16.4123 C.3     1  UNL1        0.0174
      5 C          70.2758   93.1291   15.6979 C.3     1  UNL1        0.0174
      6 C          69.4717   92.4637   14.6206 C.3     1  UNL1        0.0594
      7 C          68.4375   91.9684   13.6385 C.3     1  UNL1        0.0356
      8 N          68.0802   93.0216   14.6692 N.3     1  UNL1       -0.2715
      9 O          65.3481   90.2798   14.5100 O.2     1  UNL1       -0.2701
     10 C          65.0853   91.0628   13.2578 C.2     1  UNL1        0.2463
     11 N          65.9586   92.2306   12.9063 N.am    1  UNL1       -0.3024
     12 H          65.7861   92.7445   12.0844 H       1  UNL1        0.1497
     13 C          63.9491   90.6780   12.3573 C.ar    1  UNL1        0.0699
     14 C          63.8500   91.2671   10.9813 C.ar    1  UNL1        0.0818
     15 C          62.7139   90.8823   10.0808 C.ar    1  UNL1        0.3019
     16 N          61.6767   89.9084   10.5562 N.ar    1  UNL1       -0.1518
     17 O          60.5405   89.5236    9.6556 O.co2   1  UNL1       -0.6187
     18 C          61.7758   89.3194   11.9321 C.ar    1  UNL1        0.3063
     19 C          62.9120   89.7042   12.8327 C.ar    1  UNL1        0.1289
     20 C          63.0111   89.1151   14.2086 C.2     1  UNL1        0.2552
     21 O          62.6284   90.2127   15.1567 O.2     1  UNL1       -0.2697
     22 N          63.4300   87.6855   14.3840 N.am    1  UNL1       -0.2759
     23 C          63.7499   86.8450   13.1835 C.3     1  UNL1        0.0937
     24 C          64.1688   85.4154   13.3589 C.3     1  UNL1        0.0216
     25 C          64.2679   84.8263   14.7349 C.3     1  UNL1        0.0035
     26 C          63.9480   85.6669   15.9354 C.3     1  UNL1        0.0216
     27 C          63.5291   87.0964   15.7599 C.3     1  UNL1        0.0937
     28 C          66.9441   92.6368   13.7685 C.3     1  UNL1        0.0991
     29 C          66.8830   93.1711   12.3682 C.ar    1  UNL1       -0.0061
     30 C          67.5040   92.3980   11.2428 C.ar    1  UNL1       -0.0029
     31 C          67.4429   92.9323    9.8425 C.ar    1  UNL1       -0.0002
     32 C          66.7607   94.2396    9.5677 C.ar    1  UNL1        0.0022
     33 C          66.6996   94.7738    8.1673 C.ar    1  UNL1        0.0296
     34 C          66.0174   96.0811    7.8925 C.ar    1  UNL1        0.1401
     35 F          65.9562   96.6154    6.4922 F       1  UNL1       -0.2042
     36 C          65.3963   96.8542    9.0180 C.ar    1  UNL1        0.0296
     37 C          65.4574   96.3199   10.4182 C.ar    1  UNL1        0.0023
     38 C          66.1396   95.0126   10.6931 C.ar    1  UNL1       -0.0001
     39 C          66.2007   94.4784   12.0933 C.ar    1  UNL1       -0.0029
@<TRIPOS>UNITY_ATOM_ATTR
16 1
charge 1
17 1
charge -1
@<TRIPOS>BOND
     1     9    10    2
     2    10    11   am
     3     1    11    1
     4     1     2    1
     5     3     2    1
     6     3     4    1
     7     4     5    1
     8     6     5    1
     9     6     7    1
    10     6     8    1
    11     8    28    1
    12    28    29    1
    13    29    30   ar
    14    30    31   ar
    15    31    32   ar
    16    32    33   ar
    17    33    34   ar
    18    34    35    1
    19    34    36   ar
    20    36    37   ar
    21    37    38   ar
    22    38    39   ar
    23    10    13    1
    24    13    14   ar
    25    14    15   ar
    26    15    16   ar
    27    16    17    1
    28    16    18   ar
    29    18    19   ar
    30    19    20    1
    31    20    21    2
    32    20    22   am
    33    22    23    1
    34    23    24    1
    35    24    25    1
    36    25    26    1
    37    26    27    1
    38     7     1    1
    39    39    29   ar
    40    19    13   ar
    41    27    22    1
    42     8     3    1
    43    38    32   ar
    44    11    12    1
@<TRIPOS>MOLECULE
*****
 39 44 0 0 0
SMALL
GASTEIGER

@<TRIPOS>ATOM
      1 C          61.9680   88.2745   10.7883 C.3     1  UNL1        0.0745
      2 C          60.4792   88.4540   10.8227 C.3     1  UNL1        0.0356
      3 C          59.6289   87.8785    9.7292 C.3     1  UNL1        0.0594
      4 C          59.1998   87.1643    8.4819 C.3     1  UNL1        0.0174
      5 C          60.4281   86.6247    7.8109 C.3     1  UNL1        0.0174
      6 C          61.6163   87.0054    8.6435 C.3     1  UNL1        0.0594
      7 C          62.6066   87.5195    9.6605 C.3     1  UNL1        0.0356
      8 N          61.1224   87.7803    9.8291 N.3     1  UNL1       -0.2715
      9 O          62.0695   91.2439   11.2039 O.2     1  UNL1       -0.2701
     10 C          62.8690   90.3348   12.0897 C.2     1  UNL1        0.2463
     11 N          62.8183   88.8502   11.8819 N.am    1  UNL1       -0.3024
     12 H          63.3430   88.2535   12.4632 H       1  UNL1        0.1497
     13 C          63.7192   90.9104   13.1832 C.ar    1  UNL1        0.0699
     14 C          63.4264   90.5759   14.6158 C.ar    1  UNL1        0.0818
     15 C          64.2766   91.1516   15.7093 C.ar    1  UNL1        0.3019
     16 N          65.4197   92.0618   15.3702 N.ar    1  UNL1       -0.1518
     17 O          66.2699   92.6374   16.4637 O.co2   1  UNL1       -0.6187
     18 C          65.7125   92.3963   13.9376 C.ar    1  UNL1        0.3063
     19 C          64.8623   91.8206   12.8441 C.ar    1  UNL1        0.1289
     20 C          65.1551   92.1551   11.4115 C.2     1  UNL1        0.2552
     21 O          64.7828   90.9377   10.6182 O.2     1  UNL1       -0.2697
     22 N          65.7097   93.5023   11.0541 N.am    1  UNL1       -0.2759
     23 C          65.9714   94.5149   12.1294 C.3     1  UNL1        0.0937
     24 C          66.5260   95.8621   11.7720 C.3     1  UNL1        0.0216
     25 C          66.8188   96.1966   10.3394 C.3     1  UNL1        0.0035
     26 C          66.5571   95.1839    9.2642 C.3     1  UNL1        0.0216
     27 C          66.0025   93.8368    9.6215 C.3     1  UNL1        0.0937
     28 C          61.9726   88.3558   10.9226 C.3     1  UNL1        0.0991
     29 C          62.6189   87.4480   11.9268 C.ar    1  UNL1       -0.0061
     30 C          63.5476   88.0131   12.9603 C.ar    1  UNL1       -0.0029
     31 C          64.1937   87.1053   13.9644 C.ar    1  UNL1       -0.0002
     32 C          63.9112   85.6324   13.9350 C.ar    1  UNL1        0.0022
     33 C          64.5575   84.7246   14.9392 C.ar    1  UNL1        0.0296
     34 C          64.2750   83.2517   14.9098 C.ar    1  UNL1        0.1401
     35 F          64.9212   82.3439   15.9139 F       1  UNL1       -0.2042
     36 C          63.3462   82.6867   13.8762 C.ar    1  UNL1        0.0296
     37 C          62.7001   83.5945   12.8721 C.ar    1  UNL1        0.0023
     38 C          62.9826   85.0673   12.9015 C.ar    1  UNL1       -0.0001
     39 C          62.3364   85.9751   11.8974 C.ar    1  UNL1       -0.0029
@<TRIPOS>UNITY_ATOM_ATTR
16 1
charge 1
17 1
charge -1
@<TRIPOS>BOND
     1     9    10    2
     2    10    11   am
     3     1    11    1
     4     1     2    1
     5     3     2    1
     6     3     4    1
     7     4     5    1
     8     6     5    1
     9     6     7    1
    10     6     8    1
    11     8    28    1
    12    28    29    1
    13    29    30   ar
    14    30    31   ar
    15    31    32   ar
    16    32    33   ar
    17    33    34   ar
    18    34    35    1
    19    34    36   ar
    20    36    37   ar
    21    37    38   ar
    22    38    39   ar
    23    10    13    1
    24    13    14   ar
    25    14    15   ar
    26    15    16   ar
    27    16    17    1
    28    16    18   ar
    29    18    19   ar
    30    19    20    1
    31    20    21    2
    32    20    22   am
    33    22    23    1
    34    23    24    1
    35    24    25    1
    36    25    26    1
    37    26    27    1
    38     7     1    1
    39    39    29   ar
    40    19    13   ar
    41    27    22    1
    42     8     3    1
    43    38    32   ar
    44    11    12    1
@<TRIPOS>MOLECULE
*****
 39 44 0 0 0
SMALL
GASTEIGER

@<TRIPOS>ATOM
      1 C          63.9693   89.1037   14.2532 C.3     1  UNL1        0.0745
      2 C          63.3387   89.6414   15.5035 C.3     1  UNL1        0.0356
      3 C          63.0372   88.7195   16.6476 C.3     1  UNL1        0.0594
      4 C          62.9216   87.4864   17.4939 C.3     1  UNL1        0.0174
      5 C          63.4757   86.3332   16.7107 C.3     1  UNL1        0.0174
      6 C          63.9337   86.8537   15.3805 C.3     1  UNL1        0.0594
      7 C          64.2984   87.6441   14.1471 C.3     1  UNL1        0.0356
      8 N          63.6627   88.3285   15.3415 N.3     1  UNL1       -0.2715
      9 O          66.1230   91.1746   14.5230 O.2     1  UNL1       -0.2701
     10 C          65.3477   91.0611   13.2439 C.2     1  UNL1        0.2463
     11 N          64.2709   90.0256   13.1090 N.am    1  UNL1       -0.3024
     12 H          63.7620   89.9511   12.2695 H       1  UNL1        0.1497
     13 C          65.6493   91.9830   12.0998 C.ar    1  UNL1        0.0699
     14 C          64.5361   92.4899   11.2315 C.ar    1  UNL1        0.0818
     15 C          64.8376   93.4118   10.0874 C.ar    1  UNL1        0.3019
     16 N          66.2524   93.8270    9.8115 N.ar    1  UNL1       -0.1518
     17 O          66.5540   94.7489    8.6674 O.co2   1  UNL1       -0.6187
     18 C          67.3656   93.3201   10.6798 C.ar    1  UNL1        0.3063
     19 C          67.0640   92.3981   11.8240 C.ar    1  UNL1        0.1289
     20 C          68.1772   91.8913   12.6922 C.2     1  UNL1        0.2552
     21 O          68.8113   90.7626   11.9346 O.2     1  UNL1       -0.2697
     22 N          68.4389   92.5289   14.0246 N.am    1  UNL1       -0.2759
     23 C          67.5875   93.6733   14.4885 C.3     1  UNL1        0.0937
     24 C          67.8492   94.3110   15.8209 C.3     1  UNL1        0.0216
     25 C          68.9624   93.8041   16.6891 C.3     1  UNL1        0.0035
     26 C          69.8139   92.6597   16.2251 C.3     1  UNL1        0.0216
     27 C          69.5521   92.0221   14.8928 C.3     1  UNL1        0.0937
     28 C          63.9642   89.2503   14.1974 C.3     1  UNL1        0.0991
     29 C          63.0854   89.2494   12.9817 C.ar    1  UNL1       -0.0061
     30 C          62.2722   90.4635   12.6431 C.ar    1  UNL1       -0.0029
     31 C          61.3935   90.4625   11.4275 C.ar    1  UNL1       -0.0002
     32 C          61.3279   89.2473   10.5505 C.ar    1  UNL1        0.0022
     33 C          60.4491   89.2464    9.3348 C.ar    1  UNL1        0.0296
     34 C          60.3835   88.0313    8.4578 C.ar    1  UNL1        0.1401
     35 F          59.5047   88.0302    7.2422 F       1  UNL1       -0.2042
     36 C          61.1967   86.8171    8.7964 C.ar    1  UNL1        0.0296
     37 C          62.0755   86.8181   10.0120 C.ar    1  UNL1        0.0023
     38 C          62.1411   88.0332   10.8891 C.ar    1  UNL1       -0.0001
     39 C          63.0198   88.0343   12.1047 C.ar    1  UNL1       -0.0029
@<TRIPOS>UNITY_ATOM_ATTR
16 1
charge 1
17 1
charge -1
@<TRIPOS>BOND
     1     9    10    2
     2    10    11   am
     3     1    11    1
     4     1     2    1
     5     3     2    1
     6     3     4    1
     7     4     5    1
     8     6     5    1
     9     6     7    1
    10     6     8    1
    11     8    28    1
    12    28    29    1
    13    29    30   ar
    14    30    31   ar
    15    31    32   ar
    16    32    33   ar
    17    33    34   ar
    18    34    35    1
    19    34    36   ar
    20    36    37   ar
    21    37    38   ar
    22    38    39   ar
    23    10    13    1
    24    13    14   ar
    25    14    15   ar
    26    15    16   ar
    27    16    17    1
    28    16    18   ar
    29    18    19   ar
    30    19    20    1
    31    20    21    2
    32    20    22   am
    33    22    23    1
    34    23    24    1
    35    24    25    1
    36    25    26    1
    37    26    27    1
    38     7     1    1
    39    39    29   ar
    40    19    13   ar
    41    27    22    1
    42     8     3    1
    43    38    32   ar
    44    11    12    1
