@<TRIPOS>MOLECULE
*****
 26 28 0 0 0
SMALL
GASTEIGER

@<TRIPOS>ATOM
      1 C          65.3962   92.2103   12.5917 C.3     1  UNL1        0.0061
      2 C          65.1884   91.0206   13.4814 C.3     1  UNL1        0.0373
      3 C          65.3463   90.0840   14.6423 C.3     1  UNL1        0.0075
      4 C          64.5233   88.8319   14.7131 C.3     1  UNL1        0.0219
      5 C          63.5425   88.5165   13.6230 C.3     1  UNL1        0.0950
      6 N          63.3846   89.4531   12.4620 N.am    1  UNL1       -0.2639
      7 C          62.4037   89.1376   11.3719 C.2     1  UNL1        0.3042
      8 O          62.2459   90.0743   10.2110 O.2     1  UNL1       -0.2526
      9 N          61.5808   87.8855   11.4427 N.am    1  UNL1       -0.2846
     10 C          64.2075   90.7052   12.3912 C.3     1  UNL1        0.0989
     11 H          61.6844   87.2708   12.2046 H       1  UNL1        0.1513
     12 C          66.2414   91.7493   14.2626 C.ar    1  UNL1       -0.0212
     13 C          65.9235   92.2936   15.6237 C.ar    1  UNL1       -0.0042
     14 C          66.9765   93.0222   16.4048 C.ar    1  UNL1       -0.0003
     15 C          68.3475   93.2065   15.8248 C.ar    1  UNL1       -0.0000
     16 C          68.6655   92.6622   14.4638 C.ar    1  UNL1       -0.0003
     17 C          67.6125   91.9336   13.6827 C.ar    1  UNL1       -0.0042
     18 C          60.6000   87.5702   10.3525 C.3     1  UNL1        0.1185
     19 C          61.0140   86.7064    9.1980 C.ar    1  UNL1        0.0081
     20 C          62.3953   86.1230    9.1553 C.ar    1  UNL1       -0.0009
     21 C          62.8092   85.2593    8.0009 C.ar    1  UNL1        0.0112
     22 C          61.8420   84.9790    6.8892 C.ar    1  UNL1        0.0585
     23 CL         62.2559   84.1153    5.7348 Cl      1  UNL1       -0.0822
     24 C          60.4607   85.5625    6.9320 C.ar    1  UNL1        0.0225
     25 C          60.0468   86.4261    8.0864 C.ar    1  UNL1        0.0561
     26 CL         58.6655   87.0096    8.1291 Cl      1  UNL1       -0.0825
@<TRIPOS>BOND
     1     1     2    1
     2     2    12    1
     3    12    13   ar
     4    13    14   ar
     5    14    15   ar
     6    15    16   ar
     7    16    17   ar
     8     2     3    1
     9     3     4    1
    10     4     5    1
    11     5     6    1
    12     6     7   am
    13     7     8    2
    14     7     9   am
    15     9    18    1
    16    18    19    1
    17    19    20   ar
    18    20    21   ar
    19    21    22   ar
    20    22    23    1
    21    22    24   ar
    22    24    25   ar
    23    25    26    1
    24     6    10    1
    25    10     2    1
    26    17    12   ar
    27    25    19   ar
    28     9    11    1
@<TRIPOS>MOLECULE
*****
 26 28 0 0 0
SMALL
GASTEIGER

@<TRIPOS>ATOM
      1 C          62.4036   84.7388   11.7799 C.3     1  UNL1        0.0061
      2 C          63.1967   84.7708   13.0527 C.3     1  UNL1        0.0373
      3 C          63.9127   84.2897   14.2798 C.3     1  UNL1        0.0075
      4 C          64.5755   85.2750   15.1962 C.3     1  UNL1        0.0219
      5 C          64.5223   86.7415   14.8855 C.3     1  UNL1        0.0950
      6 N          63.8063   87.2227   13.6584 N.am    1  UNL1       -0.2639
      7 C          63.7532   88.6892   13.3477 C.2     1  UNL1        0.3042
      8 O          63.0372   89.1703   12.1206 O.2     1  UNL1       -0.2526
      9 N          64.4159   89.6745   14.2641 N.am    1  UNL1       -0.2846
     10 C          63.1436   86.2374   12.7420 C.3     1  UNL1        0.0989
     11 H          64.8859   89.3587   15.0695 H       1  UNL1        0.1513
     12 C          62.9744   83.2932   12.9213 C.ar    1  UNL1       -0.0212
     13 C          62.4331   82.5102   14.0806 C.ar    1  UNL1       -0.0042
     14 C          62.2108   81.0326   13.9492 C.ar    1  UNL1       -0.0003
     15 C          62.5299   80.3380   12.6586 C.ar    1  UNL1       -0.0000
     16 C          63.0712   81.1210   11.4993 C.ar    1  UNL1       -0.0003
     17 C          63.2935   82.5985   11.6307 C.ar    1  UNL1       -0.0042
     18 C          64.3627   91.1410   13.9534 C.3     1  UNL1        0.1185
     19 C          65.2236   91.7084   12.8638 C.ar    1  UNL1        0.0081
     20 C          64.6242   92.0363   11.5284 C.ar    1  UNL1       -0.0009
     21 C          65.4851   92.6037   10.4390 C.ar    1  UNL1        0.0112
     22 C          66.9452   92.8433   10.6848 C.ar    1  UNL1        0.0585
     23 CL         67.8061   93.4107    9.5954 Cl      1  UNL1       -0.0822
     24 C          67.5446   92.5153   12.0203 C.ar    1  UNL1        0.0225
     25 C          66.6837   91.9479   13.1097 C.ar    1  UNL1        0.0561
     26 CL         67.2831   91.6200   14.4451 Cl      1  UNL1       -0.0825
@<TRIPOS>BOND
     1     1     2    1
     2     2    12    1
     3    12    13   ar
     4    13    14   ar
     5    14    15   ar
     6    15    16   ar
     7    16    17   ar
     8     2     3    1
     9     3     4    1
    10     4     5    1
    11     5     6    1
    12     6     7   am
    13     7     8    2
    14     7     9   am
    15     9    18    1
    16    18    19    1
    17    19    20   ar
    18    20    21   ar
    19    21    22   ar
    20    22    23    1
    21    22    24   ar
    22    24    25   ar
    23    25    26    1
    24     6    10    1
    25    10     2    1
    26    17    12   ar
    27    25    19   ar
    28     9    11    1
@<TRIPOS>MOLECULE
*****
 26 28 0 0 0
SMALL
GASTEIGER

@<TRIPOS>ATOM
      1 C          62.4506   84.4192   11.7914 C.3     1  UNL1        0.0061
      2 C          63.1769   84.4060   13.1038 C.3     1  UNL1        0.0373
      3 C          63.8031   83.8844   14.3630 C.3     1  UNL1        0.0075
      4 C          64.4652   84.8314   15.3194 C.3     1  UNL1        0.0219
      5 C          64.5010   86.3001   15.0166 C.3     1  UNL1        0.0950
      6 N          63.8748   86.8217   13.7574 N.am    1  UNL1       -0.2639
      7 C          63.9106   88.2905   13.4546 C.2     1  UNL1        0.3042
      8 O          63.2843   88.8120   12.1953 O.2     1  UNL1       -0.2526
      9 N          64.5727   89.2375   14.4110 N.am    1  UNL1       -0.2846
     10 C          63.2127   85.8747   12.8009 C.3     1  UNL1        0.0989
     11 H          64.9837   88.8951   15.2375 H       1  UNL1        0.1513
     12 C          62.8888   82.9418   12.9508 C.ar    1  UNL1       -0.0212
     13 C          62.1828   82.1980   14.0453 C.ar    1  UNL1       -0.0042
     14 C          61.8948   80.7339   13.8923 C.ar    1  UNL1       -0.0003
     15 C          62.3128   80.0137   12.6447 C.ar    1  UNL1       -0.0000
     16 C          63.0188   80.7575   11.5501 C.ar    1  UNL1       -0.0003
     17 C          63.3069   82.2216   11.7032 C.ar    1  UNL1       -0.0042
     18 C          64.6084   90.7061   14.1081 C.3     1  UNL1        0.1185
     19 C          65.7843   91.5322   14.5386 C.ar    1  UNL1        0.0081
     20 C          67.0069   91.6051   13.6726 C.ar    1  UNL1       -0.0009
     21 C          68.1826   92.4312   14.1031 C.ar    1  UNL1        0.0112
     22 C          68.1357   93.1843   15.3994 C.ar    1  UNL1        0.0585
     23 CL         69.3114   94.0104   15.8299 Cl      1  UNL1       -0.0822
     24 C          66.9130   93.1114   16.2654 C.ar    1  UNL1        0.0225
     25 C          65.7373   92.2853   15.8349 C.ar    1  UNL1        0.0561
     26 CL         64.5147   92.2124   16.7009 Cl      1  UNL1       -0.0825
@<TRIPOS>BOND
     1     1     2    1
     2     2    12    1
     3    12    13   ar
     4    13    14   ar
     5    14    15   ar
     6    15    16   ar
     7    16    17   ar
     8     2     3    1
     9     3     4    1
    10     4     5    1
    11     5     6    1
    12     6     7   am
    13     7     8    2
    14     7     9   am
    15     9    18    1
    16    18    19    1
    17    19    20   ar
    18    20    21   ar
    19    21    22   ar
    20    22    23    1
    21    22    24   ar
    22    24    25   ar
    23    25    26    1
    24     6    10    1
    25    10     2    1
    26    17    12   ar
    27    25    19   ar
    28     9    11    1
@<TRIPOS>MOLECULE
*****
 26 28 0 0 0
SMALL
GASTEIGER

@<TRIPOS>ATOM
      1 C          63.8204   83.8677   14.3583 C.3     1  UNL1        0.0061
      2 C          63.1883   84.4053   13.1086 C.3     1  UNL1        0.0373
      3 C          62.4658   84.4338   11.7944 C.3     1  UNL1        0.0075
      4 C          62.2233   85.7412   11.1001 C.3     1  UNL1        0.0219
      5 C          62.7033   87.0200   11.7201 C.3     1  UNL1        0.0950
      6 N          63.4258   86.9914   13.0343 N.am    1  UNL1       -0.2639
      7 C          63.9058   88.2702   13.6543 C.2     1  UNL1        0.3042
      8 O          64.6283   88.2415   14.9685 O.2     1  UNL1       -0.2526
      9 N          63.6632   89.5775   12.9600 N.am    1  UNL1       -0.2846
     10 C          63.6683   85.6841   13.7286 C.3     1  UNL1        0.0989
     11 H          63.1890   89.5963   12.0974 H       1  UNL1        0.1513
     12 C          62.9279   82.9397   12.9227 C.ar    1  UNL1       -0.0212
     13 C          62.2336   82.1589   13.9989 C.ar    1  UNL1       -0.0042
     14 C          61.9732   80.6935   13.8129 C.ar    1  UNL1       -0.0003
     15 C          62.4070   80.0089   12.5507 C.ar    1  UNL1       -0.0000
     16 C          63.1012   80.7897   11.4745 C.ar    1  UNL1       -0.0003
     17 C          63.3617   82.2551   11.6605 C.ar    1  UNL1       -0.0042
     18 C          64.1432   90.8563   13.5800 C.3     1  UNL1        0.1185
     19 C          64.8503   91.8781   12.7396 C.ar    1  UNL1        0.0081
     20 C          64.5730   91.9604   11.2677 C.ar    1  UNL1       -0.0009
     21 C          65.2801   92.9821   10.4274 C.ar    1  UNL1        0.0112
     22 C          66.2643   93.9215   11.0589 C.ar    1  UNL1        0.0585
     23 CL         66.9714   94.9433   10.2186 Cl      1  UNL1       -0.0822
     24 C          66.5415   93.8391   12.5308 C.ar    1  UNL1        0.0225
     25 C          65.8345   92.8174   13.3711 C.ar    1  UNL1        0.0561
     26 CL         66.1117   92.7350   14.8430 Cl      1  UNL1       -0.0825
@<TRIPOS>BOND
     1     1     2    1
     2     2    12    1
     3    12    13   ar
     4    13    14   ar
     5    14    15   ar
     6    15    16   ar
     7    16    17   ar
     8     2     3    1
     9     3     4    1
    10     4     5    1
    11     5     6    1
    12     6     7   am
    13     7     8    2
    14     7     9   am
    15     9    18    1
    16    18    19    1
    17    19    20   ar
    18    20    21   ar
    19    21    22   ar
    20    22    23    1
    21    22    24   ar
    22    24    25   ar
    23    25    26    1
    24     6    10    1
    25    10     2    1
    26    17    12   ar
    27    25    19   ar
    28     9    11    1
@<TRIPOS>MOLECULE
*****
 26 28 0 0 0
SMALL
GASTEIGER

@<TRIPOS>ATOM
      1 C          64.7689   92.7420   10.6043 C.3     1  UNL1        0.0061
      2 C          65.5888   93.0672   11.8177 C.3     1  UNL1        0.0373
      3 C          66.6152   93.7274   12.6898 C.3     1  UNL1        0.0075
      4 C          66.7620   93.3099   14.1230 C.3     1  UNL1        0.0219
      5 C          65.8823   92.2322   14.6842 C.3     1  UNL1        0.0950
      6 N          64.8559   91.5720   13.8121 N.am    1  UNL1       -0.2639
      7 C          63.9763   90.4943   14.3732 C.2     1  UNL1        0.3042
      8 O          62.9499   89.8342   13.5011 O.2     1  UNL1       -0.2526
      9 N          64.1231   90.0769   15.8065 N.am    1  UNL1       -0.2846
     10 C          64.7091   91.9895   12.3788 C.3     1  UNL1        0.0989
     11 H          64.7967   90.5102   16.3789 H       1  UNL1        0.1513
     12 C          66.1837   94.0319   10.8351 C.ar    1  UNL1       -0.0212
     13 C          67.1155   93.5374    9.7688 C.ar    1  UNL1       -0.0042
     14 C          67.7103   94.5022    8.7863 C.ar    1  UNL1       -0.0003
     15 C          67.3734   95.9614    8.8701 C.ar    1  UNL1       -0.0000
     16 C          66.4416   96.4560    9.9365 C.ar    1  UNL1       -0.0003
     17 C          65.8467   95.4912   10.9190 C.ar    1  UNL1       -0.0042
     18 C          63.2434   88.9992   16.3675 C.3     1  UNL1        0.1185
     19 C          63.5099   87.5621   16.0299 C.ar    1  UNL1        0.0081
     20 C          64.1766   87.2073   14.7339 C.ar    1  UNL1       -0.0009
     21 C          64.4431   85.7703   14.3964 C.ar    1  UNL1        0.0112
     22 C          64.0428   84.6881   15.3548 C.ar    1  UNL1        0.0585
     23 CL         64.3092   83.2511   15.0173 Cl      1  UNL1       -0.0822
     24 C          63.3760   85.0430   16.6508 C.ar    1  UNL1        0.0225
     25 C          63.1096   86.4800   16.9883 C.ar    1  UNL1        0.0561
     26 CL         62.4428   86.8348   18.2843 Cl      1  UNL1       -0.0825
@<TRIPOS>BOND
     1     1     2    1
     2     2    12    1
     3    12    13   ar
     4    13    14   ar
     5    14    15   ar
     6    15    16   ar
     7    16    17   ar
     8     2     3    1
     9     3     4    1
    10     4     5    1
    11     5     6    1
    12     6     7   am
    13     7     8    2
    14     7     9   am
    15     9    18    1
    16    18    19    1
    17    19    20   ar
    18    20    21   ar
    19    21    22   ar
    20    22    23    1
    21    22    24   ar
    22    24    25   ar
    23    25    26    1
    24     6    10    1
    25    10     2    1
    26    17    12   ar
    27    25    19   ar
    28     9    11    1
@<TRIPOS>MOLECULE
*****
 26 28 0 0 0
SMALL
GASTEIGER

@<TRIPOS>ATOM
      1 C          63.9384   83.7415   13.9692 C.3     1  UNL1        0.0061
      2 C          63.1940   84.2758   12.7815 C.3     1  UNL1        0.0373
      3 C          62.3851   84.2986   11.5185 C.3     1  UNL1        0.0075
      4 C          62.0203   85.6084   10.8851 C.3     1  UNL1        0.0219
      5 C          62.4645   86.8955   11.5146 C.3     1  UNL1        0.0950
      6 N          63.2733   86.8727   12.7776 N.am    1  UNL1       -0.2639
      7 C          63.7174   88.1597   13.4072 C.2     1  UNL1        0.3042
      8 O          64.5263   88.1368   14.6702 O.2     1  UNL1       -0.2526
      9 N          63.3526   89.4695   12.7737 N.am    1  UNL1       -0.2846
     10 C          63.6381   85.5628   13.4111 C.3     1  UNL1        0.0989
     11 H          62.8218   89.4845   11.9448 H       1  UNL1        0.1513
     12 C          63.0084   82.8032   12.5644 C.ar    1  UNL1       -0.0212
     13 C          62.5368   81.9325   13.6911 C.ar    1  UNL1       -0.0042
     14 C          62.3512   80.4600   13.4740 C.ar    1  UNL1       -0.0003
     15 C          62.6373   79.8581   12.1302 C.ar    1  UNL1       -0.0000
     16 C          63.1090   80.7287   11.0035 C.ar    1  UNL1       -0.0003
     17 C          63.2945   82.2013   11.2206 C.ar    1  UNL1       -0.0042
     18 C          63.7968   90.7565   13.4033 C.3     1  UNL1        0.1185
     19 C          64.6431   91.7196   12.6245 C.ar    1  UNL1        0.0081
     20 C          65.7800   92.4315   13.2957 C.ar    1  UNL1       -0.0009
     21 C          66.6262   93.3945   12.5169 C.ar    1  UNL1        0.0112
     22 C          66.3355   93.6456   11.0670 C.ar    1  UNL1        0.0585
     23 CL         67.1817   94.6086   10.2881 Cl      1  UNL1       -0.0822
     24 C          65.1985   92.9336   10.3958 C.ar    1  UNL1        0.0225
     25 C          64.3523   91.9706   11.1746 C.ar    1  UNL1        0.0561
     26 CL         63.2153   91.2587   10.5034 Cl      1  UNL1       -0.0825
@<TRIPOS>BOND
     1     1     2    1
     2     2    12    1
     3    12    13   ar
     4    13    14   ar
     5    14    15   ar
     6    15    16   ar
     7    16    17   ar
     8     2     3    1
     9     3     4    1
    10     4     5    1
    11     5     6    1
    12     6     7   am
    13     7     8    2
    14     7     9   am
    15     9    18    1
    16    18    19    1
    17    19    20   ar
    18    20    21   ar
    19    21    22   ar
    20    22    23    1
    21    22    24   ar
    22    24    25   ar
    23    25    26    1
    24     6    10    1
    25    10     2    1
    26    17    12   ar
    27    25    19   ar
    28     9    11    1
@<TRIPOS>MOLECULE
*****
 26 28 0 0 0
SMALL
GASTEIGER

@<TRIPOS>ATOM
      1 C          63.8058   84.2657   13.8618 C.3     1  UNL1        0.0061
      2 C          63.1371   84.7426   12.6066 C.3     1  UNL1        0.0373
      3 C          62.4195   84.7045   11.2900 C.3     1  UNL1        0.0075
      4 C          62.0750   85.9836   10.5863 C.3     1  UNL1        0.0219
      5 C          62.4481   87.3009   11.1993 C.3     1  UNL1        0.0950
      6 N          63.1657   87.3390   12.5160 N.am    1  UNL1       -0.2639
      7 C          63.5388   88.6562   13.1290 C.2     1  UNL1        0.3042
      8 O          64.2564   88.6942   14.4456 O.2     1  UNL1       -0.2526
      9 N          63.1943   89.9353   12.4253 N.am    1  UNL1       -0.2846
     10 C          63.5102   86.0599   13.2196 C.3     1  UNL1        0.0989
     11 H          62.7233   89.9103   11.5611 H       1  UNL1        0.1513
     12 C          62.9962   83.2597   12.4296 C.ar    1  UNL1       -0.0212
     13 C          63.4150   82.6151   11.1416 C.ar    1  UNL1       -0.0042
     14 C          63.2741   81.1322   10.9646 C.ar    1  UNL1       -0.0003
     15 C          62.7145   80.2941   12.0756 C.ar    1  UNL1       -0.0000
     16 C          62.2958   80.9388   13.3636 C.ar    1  UNL1       -0.0003
     17 C          62.4366   82.4216   13.5406 C.ar    1  UNL1       -0.0042
     18 C          63.5674   91.2525   13.0383 C.3     1  UNL1        0.1185
     19 C          65.0019   91.5501   13.3607 C.ar    1  UNL1        0.0081
     20 C          65.5213   91.3225   14.7494 C.ar    1  UNL1       -0.0009
     21 C          66.9557   91.6201   15.0716 C.ar    1  UNL1        0.0112
     22 C          67.8707   92.1454   14.0054 C.ar    1  UNL1        0.0585
     23 CL         69.3051   92.4430   14.3277 Cl      1  UNL1       -0.0822
     24 C          67.3511   92.3730   12.6167 C.ar    1  UNL1        0.0225
     25 C          65.9167   92.0753   12.2944 C.ar    1  UNL1        0.0561
     26 CL         65.3973   92.3030   10.9057 Cl      1  UNL1       -0.0825
@<TRIPOS>BOND
     1     1     2    1
     2     2    12    1
     3    12    13   ar
     4    13    14   ar
     5    14    15   ar
     6    15    16   ar
     7    16    17   ar
     8     2     3    1
     9     3     4    1
    10     4     5    1
    11     5     6    1
    12     6     7   am
    13     7     8    2
    14     7     9   am
    15     9    18    1
    16    18    19    1
    17    19    20   ar
    18    20    21   ar
    19    21    22   ar
    20    22    23    1
    21    22    24   ar
    22    24    25   ar
    23    25    26    1
    24     6    10    1
    25    10     2    1
    26    17    12   ar
    27    25    19   ar
    28     9    11    1
@<TRIPOS>MOLECULE
*****
 26 28 0 0 0
SMALL
GASTEIGER

@<TRIPOS>ATOM
      1 C          62.1346   86.2158   11.7829 C.3     1  UNL1        0.0061
      2 C          62.2057   85.5839   10.4243 C.3     1  UNL1        0.0373
      3 C          62.5438   84.6010    9.3429 C.3     1  UNL1        0.0075
      4 C          62.0885   84.8485    7.9353 C.3     1  UNL1        0.0219
      5 C          61.2950   86.0790    7.6091 C.3     1  UNL1        0.0950
      6 N          60.9570   87.0620    8.6905 N.am    1  UNL1       -0.2639
      7 C          60.1636   88.2925    8.3643 C.2     1  UNL1        0.3042
      8 O          59.8255   89.2754    9.4458 O.2     1  UNL1       -0.2526
      9 N          59.7082   88.5400    6.9567 N.am    1  UNL1       -0.2846
     10 C          61.4123   86.8145   10.0981 C.3     1  UNL1        0.0989
     11 H          59.9301   87.8948    6.2469 H       1  UNL1        0.1513
     12 C          62.9745   84.5729   11.2223 C.ar    1  UNL1       -0.0212
     13 C          63.7319   83.4836   10.5225 C.ar    1  UNL1       -0.0042
     14 C          64.5006   82.4726   11.3206 C.ar    1  UNL1       -0.0003
     15 C          64.5118   82.5509   12.8185 C.ar    1  UNL1       -0.0000
     16 C          63.7544   83.6401   13.5183 C.ar    1  UNL1       -0.0003
     17 C          62.9857   84.6511   12.7203 C.ar    1  UNL1       -0.0042
     18 C          58.9148   89.7705    6.6306 C.3     1  UNL1        0.1185
     19 C          59.3719   90.6895    5.5366 C.ar    1  UNL1        0.0081
     20 C          60.8312   90.7933    5.2051 C.ar    1  UNL1       -0.0009
     21 C          61.2882   91.7122    4.1112 C.ar    1  UNL1        0.0112
     22 C          60.2861   92.5274    3.3488 C.ar    1  UNL1        0.0585
     23 CL         60.7431   93.4463    2.2549 Cl      1  UNL1       -0.0822
     24 C          58.8268   92.4235    3.6804 C.ar    1  UNL1        0.0225
     25 C          58.3698   91.5045    4.7743 C.ar    1  UNL1        0.0561
     26 CL         56.9105   91.4008    5.1058 Cl      1  UNL1       -0.0825
@<TRIPOS>BOND
     1     1     2    1
     2     2    12    1
     3    12    13   ar
     4    13    14   ar
     5    14    15   ar
     6    15    16   ar
     7    16    17   ar
     8     2     3    1
     9     3     4    1
    10     4     5    1
    11     5     6    1
    12     6     7   am
    13     7     8    2
    14     7     9   am
    15     9    18    1
    16    18    19    1
    17    19    20   ar
    18    20    21   ar
    19    21    22   ar
    20    22    23    1
    21    22    24   ar
    22    24    25   ar
    23    25    26    1
    24     6    10    1
    25    10     2    1
    26    17    12   ar
    27    25    19   ar
    28     9    11    1
