@<TRIPOS>MOLECULE
*****
 26 29 0 0 0
SMALL
GASTEIGER

@<TRIPOS>ATOM
      1 C          64.5636   90.9601   13.7224 C.ar    1  UNL1       -0.0209
      2 C          64.8828   89.7856   14.5992 C.ar    1  UNL1       -0.0041
      3 C          64.4084   88.4145   14.2184 C.ar    1  UNL1        0.0048
      4 C          63.6149   88.2178   12.9608 C.ar    1  UNL1        0.0623
      5 C          63.2957   89.3923   12.0840 C.ar    1  UNL1        0.0771
      6 C          63.7701   90.7634   12.4648 C.ar    1  UNL1        0.0125
      7 N          62.5021   89.1956   10.8264 N.am    1  UNL1       -0.1721
      8 C          62.0277   87.8245   10.4456 C.2     1  UNL1        0.3160
      9 O          61.2341   87.6278    9.1880 O.2     1  UNL1       -0.2638
     10 C          62.3469   86.6500   11.3224 C.2     1  UNL1        0.2907
     11 N          62.0165   85.1916   11.2061 N.2     1  UNL1       -0.0256
     12 C          62.6058   84.4868   12.3919 C.2     1  UNL1        0.3765
     13 N          63.3005   85.5097   13.2410 N.2     1  UNL1       -0.0302
     14 C          63.1405   86.8467   12.5800 C.2     1  UNL1        0.2419
     15 C          62.5162   83.0171   12.6782 C.ar    1  UNL1        0.0989
     16 C          61.8674   82.5375   13.9427 C.ar    1  UNL1        0.0085
     17 C          61.7778   81.0679   14.2290 C.ar    1  UNL1        0.0003
     18 C          62.3370   80.0777   13.2508 C.ar    1  UNL1        0.0009
     19 C          62.9859   80.5573   11.9863 C.ar    1  UNL1        0.0116
     20 C          63.0755   82.0269   11.7000 C.ar    1  UNL1        0.0651
     21 CL         63.7243   82.5065   10.4355 Cl      1  UNL1       -0.0820
     22 C          65.0380   92.3312   14.1032 C.3     1  UNL1        0.0264
     23 C          66.3361   92.8528   13.5621 C.3     1  UNL1        0.0047
     24 C          67.6162   92.1281   13.8553 C.3     1  UNL1        0.0003
     25 C          68.7667   93.2134   15.9165 C.3     1  UNL1        0.0000
     26 C          68.1156   92.0288   15.2663 C.3     1  UNL1        0.0000
@<TRIPOS>BOND
     1    25    26    1
     2    26    24    1
     3    24    23    1
     4    23    22    1
     5    22     1    1
     6     1     2   ar
     7     2     3   ar
     8     3     4   ar
     9     4     5   ar
    10     5     6   ar
    11     5     7    2
    12     7     8    1
    13     8     9    2
    14     8    10    1
    15    10    11    2
    16    11    12    1
    17    12    15    1
    18    15    16   ar
    19    16    17   ar
    20    17    18   ar
    21    18    19   ar
    22    19    20   ar
    23    20    21    1
    24    12    13    2
    25    13    14    1
    26     6     1   ar
    27    14    10    1
    28    14     4    2
    29    20    15   ar
@<TRIPOS>MOLECULE
*****
 26 29 0 0 0
SMALL
GASTEIGER

@<TRIPOS>ATOM
      1 C          63.1366   82.2012   12.9909 C.ar    1  UNL1       -0.0209
      2 C          63.8627   82.8148   14.1511 C.ar    1  UNL1       -0.0041
      3 C          64.0053   84.3051   14.2434 C.ar    1  UNL1        0.0048
      4 C          63.4217   85.1819   13.1754 C.ar    1  UNL1        0.0623
      5 C          62.6955   84.5683   12.0152 C.ar    1  UNL1        0.0771
      6 C          62.5530   83.0779   11.9229 C.ar    1  UNL1        0.0125
      7 N          62.1119   85.4451   10.9471 N.am    1  UNL1       -0.1721
      8 C          62.2544   86.9354   11.0394 C.2     1  UNL1        0.3160
      9 O          61.6708   87.8122    9.9714 O.2     1  UNL1       -0.2638
     10 C          62.9806   87.5490   12.1997 C.2     1  UNL1        0.2907
     11 N          63.2772   88.9752   12.5573 N.2     1  UNL1       -0.0256
     12 C          64.0441   88.9799   13.8465 C.2     1  UNL1        0.3765
     13 N          64.2215   87.5566   14.2854 N.2     1  UNL1       -0.0302
     14 C          63.5642   86.6723   13.2677 C.2     1  UNL1        0.2419
     15 C          64.5456   90.1947   14.5696 C.ar    1  UNL1        0.0989
     16 C          65.6254   91.0383   13.9594 C.ar    1  UNL1        0.0085
     17 C          66.1268   92.2530   14.6825 C.ar    1  UNL1        0.0003
     18 C          65.5486   92.6241   16.0159 C.ar    1  UNL1        0.0009
     19 C          64.4688   91.7805   16.6261 C.ar    1  UNL1        0.0116
     20 C          63.9673   90.5658   15.9030 C.ar    1  UNL1        0.0651
     21 CL         62.8875   89.7221   16.5132 Cl      1  UNL1       -0.0820
     22 C          62.9941   80.7108   12.8986 C.3     1  UNL1        0.0264
     23 C          61.7807   80.0368   13.4672 C.3     1  UNL1        0.0047
     24 C          60.7507   80.8422   14.2023 C.3     1  UNL1        0.0003
     25 C          58.9062   79.0523   14.5825 C.3     1  UNL1        0.0000
     26 C          59.3079   80.4338   14.1584 C.3     1  UNL1        0.0000
@<TRIPOS>BOND
     1    25    26    1
     2    26    24    1
     3    24    23    1
     4    23    22    1
     5    22     1    1
     6     1     2   ar
     7     2     3   ar
     8     3     4   ar
     9     4     5   ar
    10     5     6   ar
    11     5     7    2
    12     7     8    1
    13     8     9    2
    14     8    10    1
    15    10    11    2
    16    11    12    1
    17    12    15    1
    18    15    16   ar
    19    16    17   ar
    20    17    18   ar
    21    18    19   ar
    22    19    20   ar
    23    20    21    1
    24    12    13    2
    25    13    14    1
    26     6     1   ar
    27    14    10    1
    28    14     4    2
    29    20    15   ar
@<TRIPOS>MOLECULE
*****
 26 29 0 0 0
SMALL
GASTEIGER

@<TRIPOS>ATOM
      1 C          59.4284   89.0337    7.3250 C.ar    1  UNL1       -0.0209
      2 C          59.3156   87.5384    7.3604 C.ar    1  UNL1       -0.0041
      3 C          60.0394   86.7564    8.4161 C.ar    1  UNL1        0.0048
      4 C          60.8760   87.4697    9.4364 C.ar    1  UNL1        0.0623
      5 C          60.9889   88.9650    9.4011 C.ar    1  UNL1        0.0771
      6 C          60.2651   89.7470    8.3453 C.ar    1  UNL1        0.0125
      7 N          61.8256   89.6783   10.4214 N.am    1  UNL1       -0.1721
      8 C          62.5494   88.8963   11.4772 C.2     1  UNL1        0.3160
      9 O          63.3861   89.6096   12.4975 O.2     1  UNL1       -0.2638
     10 C          62.4365   87.4009   11.5125 C.2     1  UNL1        0.2907
     11 N          63.0305   86.3710   12.4270 N.2     1  UNL1       -0.0256
     12 C          62.5609   85.0210   11.9717 C.2     1  UNL1        0.3765
     13 N          61.6767   85.2168   10.7760 N.2     1  UNL1       -0.0302
     14 C          61.5998   86.6877   10.4922 C.2     1  UNL1        0.2419
     15 C          62.9137   83.7062   12.6017 C.ar    1  UNL1        0.0989
     16 C          62.3387   83.3359   13.9367 C.ar    1  UNL1        0.0085
     17 C          62.6914   82.0211   14.5666 C.ar    1  UNL1        0.0003
     18 C          63.6192   81.0766   13.8616 C.ar    1  UNL1        0.0009
     19 C          64.1941   81.4468   12.5266 C.ar    1  UNL1        0.0116
     20 C          63.8414   82.7616   11.8966 C.ar    1  UNL1        0.0651
     21 CL         64.4164   83.1319   10.5616 Cl      1  UNL1       -0.0820
     22 C          58.7046   89.8157    6.2693 C.3     1  UNL1        0.0264
     23 C          59.4795   90.6236    5.2708 C.3     1  UNL1        0.0047
     24 C          58.9077   91.9027    4.7352 C.3     1  UNL1        0.0003
     25 C          59.8090   92.8257    2.4800 C.3     1  UNL1        0.0000
     26 C          59.7837   92.8574    3.9795 C.3     1  UNL1        0.0000
@<TRIPOS>BOND
     1    25    26    1
     2    26    24    1
     3    24    23    1
     4    23    22    1
     5    22     1    1
     6     1     2   ar
     7     2     3   ar
     8     3     4   ar
     9     4     5   ar
    10     5     6   ar
    11     5     7    2
    12     7     8    1
    13     8     9    2
    14     8    10    1
    15    10    11    2
    16    11    12    1
    17    12    15    1
    18    15    16   ar
    19    16    17   ar
    20    17    18   ar
    21    18    19   ar
    22    19    20   ar
    23    20    21    1
    24    12    13    2
    25    13    14    1
    26     6     1   ar
    27    14    10    1
    28    14     4    2
    29    20    15   ar
@<TRIPOS>MOLECULE
*****
 26 29 0 0 0
SMALL
GASTEIGER

@<TRIPOS>ATOM
      1 C          60.2422   88.1652    8.8125 C.ar    1  UNL1       -0.0209
      2 C          60.7252   89.5708    9.0148 C.ar    1  UNL1       -0.0041
      3 C          61.6781   89.8832   10.1303 C.ar    1  UNL1        0.0048
      4 C          62.1480   88.7900   11.0436 C.ar    1  UNL1        0.0623
      5 C          61.6650   87.3844   10.8412 C.ar    1  UNL1        0.0771
      6 C          60.7121   87.0720    9.7257 C.ar    1  UNL1        0.0125
      7 N          62.1350   86.2911   11.7545 N.am    1  UNL1       -0.1721
      8 C          63.0878   86.6035   12.8700 C.2     1  UNL1        0.3160
      9 O          63.5578   85.5103   13.7832 O.2     1  UNL1       -0.2638
     10 C          63.5708   88.0092   13.0723 C.2     1  UNL1        0.2907
     11 N          64.5044   88.6147   14.0781 N.2     1  UNL1       -0.0256
     12 C          64.6115   90.0822   13.7865 C.2     1  UNL1        0.3765
     13 N          63.7441   90.3836   12.6005 N.2     1  UNL1       -0.0302
     14 C          63.1009   89.1024   12.1591 C.2     1  UNL1        0.2419
     15 C          65.4405   91.0741   14.5474 C.ar    1  UNL1        0.0989
     16 C          66.7659   91.5180   14.0032 C.ar    1  UNL1        0.0085
     17 C          67.5949   92.5099   14.7641 C.ar    1  UNL1        0.0003
     18 C          67.0984   93.0578   16.0692 C.ar    1  UNL1        0.0009
     19 C          65.7730   92.6139   16.6134 C.ar    1  UNL1        0.0116
     20 C          64.9441   91.6220   15.8525 C.ar    1  UNL1        0.0651
     21 CL         63.6186   91.1781   16.3967 Cl      1  UNL1       -0.0820
     22 C          59.2893   87.8528    7.6970 C.3     1  UNL1        0.0264
     23 C          58.6305   88.9671    6.9392 C.3     1  UNL1        0.0047
     24 C          59.4087   89.7421    5.9176 C.3     1  UNL1        0.0003
     25 C          57.4431   91.2165    5.0735 C.3     1  UNL1        0.0000
     26 C          58.8932   91.0617    5.4247 C.3     1  UNL1        0.0000
@<TRIPOS>BOND
     1    25    26    1
     2    26    24    1
     3    24    23    1
     4    23    22    1
     5    22     1    1
     6     1     2   ar
     7     2     3   ar
     8     3     4   ar
     9     4     5   ar
    10     5     6   ar
    11     5     7    2
    12     7     8    1
    13     8     9    2
    14     8    10    1
    15    10    11    2
    16    11    12    1
    17    12    15    1
    18    15    16   ar
    19    16    17   ar
    20    17    18   ar
    21    18    19   ar
    22    19    20   ar
    23    20    21    1
    24    12    13    2
    25    13    14    1
    26     6     1   ar
    27    14    10    1
    28    14     4    2
    29    20    15   ar
@<TRIPOS>MOLECULE
*****
 26 29 0 0 0
SMALL
GASTEIGER

@<TRIPOS>ATOM
      1 C          65.7637   93.8005   11.9844 C.ar    1  UNL1       -0.0209
      2 C          65.1184   93.6175   10.6427 C.ar    1  UNL1       -0.0041
      3 C          64.3141   92.3835   10.3593 C.ar    1  UNL1        0.0048
      4 C          64.1551   91.3325   11.4175 C.ar    1  UNL1        0.0623
      5 C          64.8005   91.5154   12.7592 C.ar    1  UNL1        0.0771
      6 C          65.6048   92.7494   13.0426 C.ar    1  UNL1        0.0125
      7 N          64.6415   90.4643   13.8175 N.am    1  UNL1       -0.1721
      8 C          63.8372   89.2303   13.5341 C.2     1  UNL1        0.3160
      9 O          63.6782   88.1792   14.5923 O.2     1  UNL1       -0.2638
     10 C          63.1918   89.0474   12.1924 C.2     1  UNL1        0.2907
     11 N          62.3468   87.9445   11.6271 N.2     1  UNL1       -0.0256
     12 C          61.9834   88.3140   10.2195 C.2     1  UNL1        0.3765
     13 N          62.6039   89.6452    9.9148 N.2     1  UNL1       -0.0302
     14 C          63.3508   90.0984   11.1341 C.2     1  UNL1        0.2419
     15 C          61.1464   87.4959    9.2812 C.ar    1  UNL1        0.0989
     16 C          59.7163   87.8721    9.0300 C.ar    1  UNL1        0.0085
     17 C          58.8794   87.0540    8.0918 C.ar    1  UNL1        0.0003
     18 C          59.4726   85.8597    7.4048 C.ar    1  UNL1        0.0009
     19 C          60.9027   85.4836    7.6561 C.ar    1  UNL1        0.0116
     20 C          61.7396   86.3017    8.5943 C.ar    1  UNL1        0.0651
     21 CL         63.1699   85.9255    8.8457 Cl      1  UNL1       -0.0820
     22 C          66.5680   95.0345   12.2678 C.3     1  UNL1        0.0264
     23 C          66.1427   96.3546   11.6965 C.3     1  UNL1        0.0047
     24 C          66.7608   96.8557   10.4249 C.3     1  UNL1        0.0003
     25 C          66.9996   95.5325    8.2018 C.3     1  UNL1        0.0000
     26 C          67.5370   95.9182    9.5481 C.3     1  UNL1        0.0000
@<TRIPOS>BOND
     1    25    26    1
     2    26    24    1
     3    24    23    1
     4    23    22    1
     5    22     1    1
     6     1     2   ar
     7     2     3   ar
     8     3     4   ar
     9     4     5   ar
    10     5     6   ar
    11     5     7    2
    12     7     8    1
    13     8     9    2
    14     8    10    1
    15    10    11    2
    16    11    12    1
    17    12    15    1
    18    15    16   ar
    19    16    17   ar
    20    17    18   ar
    21    18    19   ar
    22    19    20   ar
    23    20    21    1
    24    12    13    2
    25    13    14    1
    26     6     1   ar
    27    14    10    1
    28    14     4    2
    29    20    15   ar
@<TRIPOS>MOLECULE
*****
 26 29 0 0 0
SMALL
GASTEIGER

@<TRIPOS>ATOM
      1 C          64.3527   90.8694   14.9791 C.ar    1  UNL1       -0.0209
      2 C          63.9107   91.2132   13.5876 C.ar    1  UNL1       -0.0041
      3 C          63.5120   90.1239   12.6366 C.ar    1  UNL1        0.0048
      4 C          63.5552   88.6907   13.0771 C.ar    1  UNL1        0.0623
      5 C          63.9972   88.3469   14.4687 C.ar    1  UNL1        0.0771
      6 C          64.3959   89.4362   15.4197 C.ar    1  UNL1        0.0125
      7 N          64.0405   86.9137   14.9093 N.am    1  UNL1       -0.1721
      8 C          63.6417   85.8243   13.9583 C.2     1  UNL1        0.3160
      9 O          63.6850   84.3912   14.3988 O.2     1  UNL1       -0.2638
     10 C          63.1997   86.1682   12.5667 C.2     1  UNL1        0.2907
     11 N          62.7515   85.3160   11.4166 N.2     1  UNL1       -0.0256
     12 C          62.4312   86.2225   10.2652 C.2     1  UNL1        0.3765
     13 N          62.6815   87.6349   10.7038 N.2     1  UNL1       -0.0302
     14 C          63.1565   87.6014   12.1262 C.2     1  UNL1        0.2419
     15 C          61.9458   85.7921    8.9127 C.ar    1  UNL1        0.0989
     16 C          62.8456   85.0021    8.0094 C.ar    1  UNL1        0.0085
     17 C          62.3602   84.5717    6.6569 C.ar    1  UNL1        0.0003
     18 C          60.9749   84.9313    6.2079 C.ar    1  UNL1        0.0009
     19 C          60.0750   85.7212    7.1113 C.ar    1  UNL1        0.0116
     20 C          60.5604   86.1516    8.4637 C.ar    1  UNL1        0.0651
     21 CL         59.6605   86.9416    9.3672 Cl      1  UNL1       -0.0820
     22 C          64.7514   91.9587   15.9301 C.3     1  UNL1        0.0264
     23 C          66.0515   92.6821   15.7394 C.3     1  UNL1        0.0047
     24 C          67.2906   91.9160   15.3821 C.3     1  UNL1        0.0003
     25 C          68.9692   93.8139   15.9570 C.3     1  UNL1        0.0000
     26 C          68.6231   92.3551   15.9131 C.3     1  UNL1        0.0000
@<TRIPOS>BOND
     1    25    26    1
     2    26    24    1
     3    24    23    1
     4    23    22    1
     5    22     1    1
     6     1     2   ar
     7     2     3   ar
     8     3     4   ar
     9     4     5   ar
    10     5     6   ar
    11     5     7    2
    12     7     8    1
    13     8     9    2
    14     8    10    1
    15    10    11    2
    16    11    12    1
    17    12    15    1
    18    15    16   ar
    19    16    17   ar
    20    17    18   ar
    21    18    19   ar
    22    19    20   ar
    23    20    21    1
    24    12    13    2
    25    13    14    1
    26     6     1   ar
    27    14    10    1
    28    14     4    2
    29    20    15   ar
@<TRIPOS>MOLECULE
*****
 26 29 0 0 0
SMALL
GASTEIGER

@<TRIPOS>ATOM
      1 C          62.9370   83.5996   13.8250 C.ar    1  UNL1       -0.0209
      2 C          63.9294   84.2904   14.7127 C.ar    1  UNL1       -0.0041
      3 C          64.2118   85.7518   14.5271 C.ar    1  UNL1        0.0048
      4 C          63.5018   86.5225   13.4539 C.ar    1  UNL1        0.0623
      5 C          62.5094   85.8318   12.5662 C.ar    1  UNL1        0.0771
      6 C          62.2270   84.3703   12.7518 C.ar    1  UNL1        0.0125
      7 N          61.7994   86.6025   11.4929 N.am    1  UNL1       -0.1721
      8 C          62.0818   88.0640   11.3074 C.2     1  UNL1        0.3160
      9 O          61.3718   88.8347   10.2341 O.2     1  UNL1       -0.2638
     10 C          63.0742   88.7547   12.1951 C.2     1  UNL1        0.2907
     11 N          63.5548   90.1746   12.2489 N.2     1  UNL1       -0.0256
     12 C          64.5618   90.2814   13.3555 C.2     1  UNL1        0.3765
     13 N          64.7036   88.9275   13.9855 N.2     1  UNL1       -0.0302
     14 C          63.7842   87.9840   13.2683 C.2     1  UNL1        0.2419
     15 C          65.2979   91.5240   13.7609 C.ar    1  UNL1        0.0989
     16 C          65.6831   91.7332   15.1953 C.ar    1  UNL1        0.0085
     17 C          66.4191   92.9758   15.6006 C.ar    1  UNL1        0.0003
     18 C          66.7698   94.0091   14.5715 C.ar    1  UNL1        0.0009
     19 C          66.3846   93.7999   13.1370 C.ar    1  UNL1        0.0116
     20 C          65.6486   92.5573   12.7317 C.ar    1  UNL1        0.0651
     21 CL         65.2633   92.3481   11.2972 Cl      1  UNL1       -0.0820
     22 C          62.6546   82.1382   14.0106 C.3     1  UNL1        0.0264
     23 C          63.1649   81.1429   13.0112 C.3     1  UNL1        0.0047
     24 C          62.8867   81.3371   11.5500 C.3     1  UNL1        0.0003
     25 C          63.9859   83.1881   10.0956 C.3     1  UNL1        0.0000
     26 C          63.9835   81.7869   10.6310 C.3     1  UNL1        0.0000
@<TRIPOS>BOND
     1    25    26    1
     2    26    24    1
     3    24    23    1
     4    23    22    1
     5    22     1    1
     6     1     2   ar
     7     2     3   ar
     8     3     4   ar
     9     4     5   ar
    10     5     6   ar
    11     5     7    2
    12     7     8    1
    13     8     9    2
    14     8    10    1
    15    10    11    2
    16    11    12    1
    17    12    15    1
    18    15    16   ar
    19    16    17   ar
    20    17    18   ar
    21    18    19   ar
    22    19    20   ar
    23    20    21    1
    24    12    13    2
    25    13    14    1
    26     6     1   ar
    27    14    10    1
    28    14     4    2
    29    20    15   ar
@<TRIPOS>MOLECULE
*****
 26 29 0 0 0
SMALL
GASTEIGER

@<TRIPOS>ATOM
      1 C          66.0145   92.7510   13.9394 C.ar    1  UNL1       -0.0209
      2 C          65.3963   92.9724   12.5908 C.ar    1  UNL1       -0.0041
      3 C          64.5541   91.8995   11.9665 C.ar    1  UNL1        0.0048
      4 C          64.3301   90.6053   12.6908 C.ar    1  UNL1        0.0623
      5 C          64.9483   90.3839   14.0394 C.ar    1  UNL1        0.0771
      6 C          65.7904   91.4567   14.6637 C.ar    1  UNL1        0.0125
      7 N          64.7242   89.0896   14.7638 N.am    1  UNL1       -0.1721
      8 C          63.8821   88.0167   14.1395 C.2     1  UNL1        0.3160
      9 O          63.6580   86.7225   14.8638 O.2     1  UNL1       -0.2638
     10 C          63.2639   88.2382   12.7908 C.2     1  UNL1        0.2907
     11 N          62.3928   87.3707   11.9314 N.2     1  UNL1       -0.0256
     12 C          62.0784   88.1289   10.6758 C.2     1  UNL1        0.3765
     13 N          62.7552   89.4649   10.7594 N.2     1  UNL1       -0.0302
     14 C          63.4879   89.5325   12.0665 C.2     1  UNL1        0.2419
     15 C          61.2353   87.6373    9.5367 C.ar    1  UNL1        0.0989
     16 C          60.0765   88.4576    9.0528 C.ar    1  UNL1        0.0085
     17 C          59.2334   87.9660    7.9138 C.ar    1  UNL1        0.0003
     18 C          59.5491   86.6541    7.2587 C.ar    1  UNL1        0.0009
     19 C          60.7079   85.8338    7.7426 C.ar    1  UNL1        0.0116
     20 C          61.5510   86.3254    8.8816 C.ar    1  UNL1        0.0651
     21 CL         62.7098   85.5051    9.3656 Cl      1  UNL1       -0.0820
     22 C          66.8567   93.8238   14.5637 C.3     1  UNL1        0.0264
     23 C          67.8865   93.4648   15.5934 C.3     1  UNL1        0.0047
     24 C          68.8665   92.3622   15.3214 C.3     1  UNL1        0.0003
     25 C          69.0306   91.5810   12.8490 C.3     1  UNL1        0.0000
     26 C          69.6080   92.3225   14.0181 C.3     1  UNL1        0.0000
@<TRIPOS>BOND
     1    25    26    1
     2    26    24    1
     3    24    23    1
     4    23    22    1
     5    22     1    1
     6     1     2   ar
     7     2     3   ar
     8     3     4   ar
     9     4     5   ar
    10     5     6   ar
    11     5     7    2
    12     7     8    1
    13     8     9    2
    14     8    10    1
    15    10    11    2
    16    11    12    1
    17    12    15    1
    18    15    16   ar
    19    16    17   ar
    20    17    18   ar
    21    18    19   ar
    22    19    20   ar
    23    20    21    1
    24    12    13    2
    25    13    14    1
    26     6     1   ar
    27    14    10    1
    28    14     4    2
    29    20    15   ar
@<TRIPOS>MOLECULE
*****
 26 29 0 0 0
SMALL
GASTEIGER

@<TRIPOS>ATOM
      1 C          60.7507   87.3708    9.1389 C.ar    1  UNL1       -0.0209
      2 C          61.2377   88.7893    9.1601 C.ar    1  UNL1       -0.0041
      3 C          62.1265   89.2606   10.2728 C.ar    1  UNL1        0.0048
      4 C          62.5282   88.3133   11.3642 C.ar    1  UNL1        0.0623
      5 C          62.0412   86.8948   11.3429 C.ar    1  UNL1        0.0771
      6 C          61.1524   86.4235   10.2303 C.ar    1  UNL1        0.0125
      7 N          62.4429   85.9474   12.4344 N.am    1  UNL1       -0.1721
      8 C          63.3316   86.4187   13.5471 C.2     1  UNL1        0.3160
      9 O          63.7333   85.4714   14.6385 O.2     1  UNL1       -0.2638
     10 C          63.8187   87.8373   13.5683 C.2     1  UNL1        0.2907
     11 N          64.6982   88.5822   14.5282 N.2     1  UNL1       -0.0256
     12 C          64.8401   89.9899   14.0300 C.2     1  UNL1        0.3765
     13 N          64.0483   90.1150   12.7622 N.2     1  UNL1       -0.0302
     14 C          63.4170   88.7846   12.4769 C.2     1  UNL1        0.2419
     15 C          65.6345   91.0810   14.6847 C.ar    1  UNL1        0.0989
     16 C          66.9566   91.4947   14.1095 C.ar    1  UNL1        0.0085
     17 C          67.7509   92.5858   14.7642 C.ar    1  UNL1        0.0003
     18 C          67.2230   93.2631   15.9941 C.ar    1  UNL1        0.0009
     19 C          65.9010   92.8494   16.5693 C.ar    1  UNL1        0.0116
     20 C          65.1067   91.7584   15.9146 C.ar    1  UNL1        0.0651
     21 CL         63.7845   91.3446   16.4898 Cl      1  UNL1       -0.0820
     22 C          59.8619   86.8995    8.0262 C.3     1  UNL1        0.0264
     23 C          60.0114   85.5087    7.4848 C.3     1  UNL1        0.0047
     24 C          60.9390   85.2469    6.3354 C.3     1  UNL1        0.0003
     25 C          62.9529   84.9052    7.9410 C.3     1  UNL1        0.0000
     26 C          62.3225   84.7267    6.5917 C.3     1  UNL1        0.0000
@<TRIPOS>BOND
     1    25    26    1
     2    26    24    1
     3    24    23    1
     4    23    22    1
     5    22     1    1
     6     1     2   ar
     7     2     3   ar
     8     3     4   ar
     9     4     5   ar
    10     5     6   ar
    11     5     7    2
    12     7     8    1
    13     8     9    2
    14     8    10    1
    15    10    11    2
    16    11    12    1
    17    12    15    1
    18    15    16   ar
    19    16    17   ar
    20    17    18   ar
    21    18    19   ar
    22    19    20   ar
    23    20    21    1
    24    12    13    2
    25    13    14    1
    26     6     1   ar
    27    14    10    1
    28    14     4    2
    29    20    15   ar
