@<TRIPOS>MOLECULE
*****
 33 37 0 0 0
SMALL
GASTEIGER

@<TRIPOS>ATOM
      1 O          58.5590   87.2240    6.5437 O.2     1  UNL1       -0.1730
      2 S          59.4404   87.0356    7.7428 S.O2    1  UNL1       -0.0100
      3 O          59.1322   85.6038    7.4184 O.2     1  UNL1       -0.1730
      4 C          60.2148   86.3499    8.8291 C.3     1  UNL1        0.1508
      5 C          60.9913   87.1614    9.8234 C.3     1  UNL1        0.0255
      6 C          60.9934   88.6585    9.7313 C.3     1  UNL1        0.0087
      7 C          60.9955   90.1557    9.6393 C.3     1  UNL1        0.0004
      8 C          61.7719   90.9671   10.6336 C.3     1  UNL1        0.0020
      9 C          62.5463   90.2815   11.7199 C.3     1  UNL1        0.0268
     10 C          62.5442   88.7843   11.8119 C.3     1  UNL1        0.1419
     11 C          63.3186   88.0986   12.8983 C.ar    1  UNL1        0.0616
     12 C          64.0951   88.9101   13.8926 C.ar    1  UNL1        0.1407
     13 F          64.3137   90.3803   14.0939 F       1  UNL1       -0.2043
     14 C          64.8695   88.2244   14.9789 C.ar    1  UNL1        0.0319
     15 C          64.8674   86.7272   15.0710 C.ar    1  UNL1        0.0351
     16 C          64.0909   85.9157   14.0767 C.ar    1  UNL1        0.1737
     17 F          64.0889   84.4186   14.1688 F       1  UNL1       -0.2010
     18 C          63.3165   86.6015   12.9904 C.ar    1  UNL1        0.1654
     19 O          62.5401   85.7900   11.9961 O.3     1  UNL1       -0.4733
     20 C          61.7657   86.4756   10.9097 C.3     1  UNL1        0.2074
     21 C          61.7677   87.9729   10.8177 C.3     1  UNL1        0.0685
     22 C          60.2190   89.3442    8.6450 C.3     1  UNL1        0.0255
     23 C          59.4425   88.5327    7.6507 C.3     1  UNL1        0.1508
     24 S          63.3207   89.5958   12.8062 S.O2    1  UNL1        0.0093
     25 O          64.0661   89.8058   12.6174 O.2     1  UNL1       -0.1684
     26 O          62.3678   89.7766   13.9504 O.2     1  UNL1       -0.1684
     27 C          64.0971   90.4073   13.8005 C.ar    1  UNL1        0.1059
     28 C          65.4619   90.9200   13.4477 C.ar    1  UNL1        0.0192
     29 C          66.2384   91.7315   14.4420 C.ar    1  UNL1        0.0127
     30 C          65.6501   92.0303   15.7891 C.ar    1  UNL1        0.0578
     31 CL         66.4265   92.8417   16.7834 Cl      1  UNL1       -0.0822
     32 C          64.2853   91.5175   16.1419 C.ar    1  UNL1        0.0127
     33 C          63.5088   90.7060   15.1476 C.ar    1  UNL1        0.0192
@<TRIPOS>BOND
     1     1     2    2
     2     2     3    2
     3     2     4    1
     4     4     5    1
     5     5     6    1
     6     6     7    1
     7     7     8    1
     8     8     9    1
     9     9    10    1
    10    10    24    1
    11    24    25    2
    12    24    26    2
    13    24    27    1
    14    27    28   ar
    15    28    29   ar
    16    29    30   ar
    17    30    31    1
    18    30    32   ar
    19    32    33   ar
    20    10    11    1
    21    11    12   ar
    22    12    13    1
    23    12    14   ar
    24    14    15   ar
    25    15    16   ar
    26    16    17    1
    27    16    18   ar
    28    18    19    1
    29    19    20    1
    30    21    20    1
    31     6    22    1
    32    22    23    1
    33    23     2    1
    34    21     6    1
    35    21    10    1
    36    33    27   ar
    37    18    11   ar
@<TRIPOS>MOLECULE
*****
 33 37 0 0 0
SMALL
GASTEIGER

@<TRIPOS>ATOM
      1 O          67.4604   94.1378   15.1082 O.2     1  UNL1       -0.1730
      2 S          66.7736   92.8214   14.8950 S.O2    1  UNL1       -0.0100
      3 O          67.4824   92.5392   16.1866 O.2     1  UNL1       -0.1730
      4 C          66.3329   91.4070   15.1303 C.3     1  UNL1        0.1508
      5 C          65.4220   90.7320   14.1482 C.3     1  UNL1        0.0255
      6 C          64.9518   91.4713   12.9307 C.3     1  UNL1        0.0087
      7 C          64.4815   92.2106   11.7133 C.3     1  UNL1        0.0004
      8 C          63.5706   91.5355   10.7312 C.3     1  UNL1        0.0020
      9 C          63.1300   90.1212   10.9665 C.3     1  UNL1        0.0268
     10 C          63.6002   89.3819   12.1840 C.3     1  UNL1        0.1419
     11 C          63.1596   87.9675   12.4193 C.ar    1  UNL1        0.0616
     12 C          62.2487   87.2924   11.4372 C.ar    1  UNL1        0.1407
     13 F          61.6036   87.7179   10.1516 F       1  UNL1       -0.2043
     14 C          61.8081   85.8781   11.6725 C.ar    1  UNL1        0.0319
     15 C          62.2783   85.1387   12.8901 C.ar    1  UNL1        0.0351
     16 C          63.1892   85.8138   13.8722 C.ar    1  UNL1        0.1737
     17 F          63.6595   85.0745   15.0896 F       1  UNL1       -0.2010
     18 C          63.6299   87.2282   13.6368 C.ar    1  UNL1        0.1654
     19 O          64.5408   87.9032   14.6189 O.3     1  UNL1       -0.4733
     20 C          64.9814   89.3176   14.3836 C.3     1  UNL1        0.2074
     21 C          64.5111   90.0569   13.1661 C.3     1  UNL1        0.0685
     22 C          65.3924   92.8856   12.6954 C.3     1  UNL1        0.0255
     23 C          66.3033   93.5607   13.6775 C.3     1  UNL1        0.1508
     24 S          62.6893   88.7068   11.2018 S.O2    1  UNL1        0.0093
     25 O          62.9986   88.4694   10.5066 O.2     1  UNL1       -0.1684
     26 O          61.3593   88.6862   11.8951 O.2     1  UNL1       -0.1684
     27 C          61.7784   88.0318   10.2197 C.ar    1  UNL1        0.1059
     28 C          62.3322   87.0333    9.2469 C.ar    1  UNL1        0.0192
     29 C          61.4213   86.3582    8.2648 C.ar    1  UNL1        0.0127
     30 C          59.9567   86.6817    8.2554 C.ar    1  UNL1        0.0578
     31 CL         59.0458   86.0066    7.2733 Cl      1  UNL1       -0.0822
     32 C          59.4028   87.6803    9.2282 C.ar    1  UNL1        0.0127
     33 C          60.3137   88.3553   10.2104 C.ar    1  UNL1        0.0192
@<TRIPOS>BOND
     1     1     2    2
     2     2     3    2
     3     2     4    1
     4     4     5    1
     5     5     6    1
     6     6     7    1
     7     7     8    1
     8     8     9    1
     9     9    10    1
    10    10    24    1
    11    24    25    2
    12    24    26    2
    13    24    27    1
    14    27    28   ar
    15    28    29   ar
    16    29    30   ar
    17    30    31    1
    18    30    32   ar
    19    32    33   ar
    20    10    11    1
    21    11    12   ar
    22    12    13    1
    23    12    14   ar
    24    14    15   ar
    25    15    16   ar
    26    16    17    1
    27    16    18   ar
    28    18    19    1
    29    19    20    1
    30    21    20    1
    31     6    22    1
    32    22    23    1
    33    23     2    1
    34    21     6    1
    35    21    10    1
    36    33    27   ar
    37    18    11   ar
@<TRIPOS>MOLECULE
*****
 33 37 0 0 0
SMALL
GASTEIGER

@<TRIPOS>ATOM
      1 O          63.1261   79.8520   12.4477 O.2     1  UNL1       -0.1730
      2 S          63.0007   81.3235   12.1849 S.O2    1  UNL1       -0.0100
      3 O          62.3822   80.7812   10.9305 O.2     1  UNL1       -0.1730
      4 C          62.6605   82.6066   11.4865 C.3     1  UNL1        0.1508
      5 C          62.9824   83.9210   12.1337 C.3     1  UNL1        0.0255
      6 C          63.6445   83.9523   13.4793 C.3     1  UNL1        0.0087
      7 C          64.3065   83.9835   14.8248 C.3     1  UNL1        0.0004
      8 C          64.6284   85.2979   15.4720 C.3     1  UNL1        0.0020
      9 C          64.2882   86.5810   14.7736 C.3     1  UNL1        0.0268
     10 C          63.6262   86.5497   13.4280 C.3     1  UNL1        0.1419
     11 C          63.2860   87.8329   12.7295 C.ar    1  UNL1        0.0616
     12 C          63.6079   89.1473   13.3767 C.ar    1  UNL1        0.1407
     13 F          64.2477   89.5404   14.6752 F       1  UNL1       -0.2043
     14 C          63.2677   90.4304   12.6783 C.ar    1  UNL1        0.0319
     15 C          62.6056   90.3992   11.3326 C.ar    1  UNL1        0.0351
     16 C          62.2837   89.0848   10.6854 C.ar    1  UNL1        0.1737
     17 F          61.6217   89.0536    9.3398 F       1  UNL1       -0.2010
     18 C          62.6239   87.8017   11.3839 C.ar    1  UNL1        0.1654
     19 O          62.3021   86.4873   10.7368 O.3     1  UNL1       -0.4733
     20 C          62.6422   85.2042   11.4352 C.3     1  UNL1        0.2074
     21 C          63.3043   85.2354   12.7808 C.3     1  UNL1        0.0685
     22 C          63.9846   82.6691   14.1777 C.3     1  UNL1        0.0255
     23 C          63.6628   81.3548   13.5305 C.3     1  UNL1        0.1508
     24 S          63.9481   87.8641   14.0752 S.O2    1  UNL1        0.0093
     25 O          64.2659   88.4370   13.6211 O.2     1  UNL1       -0.1684
     26 O          63.5349   87.6757   15.5048 O.2     1  UNL1       -0.1684
     27 C          64.2700   89.1785   14.7224 C.ar    1  UNL1        0.1059
     28 C          65.5181   89.9171   14.3397 C.ar    1  UNL1        0.0192
     29 C          65.8400   91.2315   14.9869 C.ar    1  UNL1        0.0127
     30 C          64.9137   91.8072   16.0167 C.ar    1  UNL1        0.0578
     31 CL         65.2356   93.1216   16.6639 Cl      1  UNL1       -0.0822
     32 C          63.6655   91.0685   16.3994 C.ar    1  UNL1        0.0127
     33 C          63.3436   89.7542   15.7522 C.ar    1  UNL1        0.0192
@<TRIPOS>BOND
     1     1     2    2
     2     2     3    2
     3     2     4    1
     4     4     5    1
     5     5     6    1
     6     6     7    1
     7     7     8    1
     8     8     9    1
     9     9    10    1
    10    10    24    1
    11    24    25    2
    12    24    26    2
    13    24    27    1
    14    27    28   ar
    15    28    29   ar
    16    29    30   ar
    17    30    31    1
    18    30    32   ar
    19    32    33   ar
    20    10    11    1
    21    11    12   ar
    22    12    13    1
    23    12    14   ar
    24    14    15   ar
    25    15    16   ar
    26    16    17    1
    27    16    18   ar
    28    18    19    1
    29    19    20    1
    30    21    20    1
    31     6    22    1
    32    22    23    1
    33    23     2    1
    34    21     6    1
    35    21    10    1
    36    33    27   ar
    37    18    11   ar
@<TRIPOS>MOLECULE
*****
 33 37 0 0 0
SMALL
GASTEIGER

@<TRIPOS>ATOM
      1 O          67.0824   96.8560   10.0733 O.2     1  UNL1       -0.1730
      2 S          66.3287   95.5633   10.1781 S.O2    1  UNL1       -0.0100
      3 O          66.0440   95.9155    8.7481 O.2     1  UNL1       -0.1730
      4 C          65.4762   94.3930    9.7863 C.3     1  UNL1        0.1508
      5 C          65.1701   93.3193   10.7881 C.3     1  UNL1        0.0255
      6 C          65.7165   93.4160   12.1817 C.3     1  UNL1        0.0087
      7 C          66.2629   93.5126   13.5752 C.3     1  UNL1        0.0004
      8 C          65.9568   92.4390   14.5770 C.3     1  UNL1        0.0020
      9 C          65.1042   91.2687   14.1853 C.3     1  UNL1        0.0268
     10 C          64.5578   91.1720   12.7917 C.3     1  UNL1        0.1419
     11 C          63.7053   90.0017   12.3999 C.ar    1  UNL1        0.0616
     12 C          63.3991   88.9280   13.4016 C.ar    1  UNL1        0.1407
     13 F          63.7675   88.7084   14.8390 F       1  UNL1       -0.2043
     14 C          62.5466   87.7577   13.0099 C.ar    1  UNL1        0.0319
     15 C          62.0002   87.6610   11.6162 C.ar    1  UNL1        0.0351
     16 C          62.3063   88.7346   10.6145 C.ar    1  UNL1        0.1737
     17 F          61.7599   88.6380    9.2209 F       1  UNL1       -0.2010
     18 C          63.1589   89.9050   11.0063 C.ar    1  UNL1        0.1654
     19 O          63.4650   90.9786   10.0045 O.3     1  UNL1       -0.4733
     20 C          64.3175   92.1490   10.3963 C.3     1  UNL1        0.2074
     21 C          64.8640   92.2457   11.7899 C.3     1  UNL1        0.0685
     22 C          66.5690   94.5863   12.5735 C.3     1  UNL1        0.0255
     23 C          66.8751   95.6599   11.5717 C.3     1  UNL1        0.1508
     24 S          64.2517   90.0984   13.7935 S.O2    1  UNL1        0.0093
     25 O          64.8599   89.6716   14.0824 O.2     1  UNL1       -0.1684
     26 O          62.7621   90.1670   13.9554 O.2     1  UNL1       -0.1684
     27 C          63.9456   89.0247   14.7953 C.ar    1  UNL1        0.1059
     28 C          63.0605   89.3241   15.9687 C.ar    1  UNL1        0.0192
     29 C          62.7544   88.2505   16.9705 C.ar    1  UNL1        0.0127
     30 C          63.3334   86.8774   16.7988 C.ar    1  UNL1        0.0578
     31 CL         63.0272   85.8038   17.8006 Cl      1  UNL1       -0.0822
     32 C          64.2185   86.5780   15.6254 C.ar    1  UNL1        0.0127
     33 C          64.5246   87.6516   14.6236 C.ar    1  UNL1        0.0192
@<TRIPOS>BOND
     1     1     2    2
     2     2     3    2
     3     2     4    1
     4     4     5    1
     5     5     6    1
     6     6     7    1
     7     7     8    1
     8     8     9    1
     9     9    10    1
    10    10    24    1
    11    24    25    2
    12    24    26    2
    13    24    27    1
    14    27    28   ar
    15    28    29   ar
    16    29    30   ar
    17    30    31    1
    18    30    32   ar
    19    32    33   ar
    20    10    11    1
    21    11    12   ar
    22    12    13    1
    23    12    14   ar
    24    14    15   ar
    25    15    16   ar
    26    16    17    1
    27    16    18   ar
    28    18    19    1
    29    19    20    1
    30    21    20    1
    31     6    22    1
    32    22    23    1
    33    23     2    1
    34    21     6    1
    35    21    10    1
    36    33    27   ar
    37    18    11   ar
@<TRIPOS>MOLECULE
*****
 33 37 0 0 0
SMALL
GASTEIGER

@<TRIPOS>ATOM
      1 O          59.6010   87.0277    9.3770 O.2     1  UNL1       -0.1730
      2 S          60.5221   88.1945    9.5779 S.O2    1  UNL1       -0.0100
      3 O          59.8267   88.6251    8.3205 O.2     1  UNL1       -0.1730
      4 C          61.2016   89.5107    9.3423 C.3     1  UNL1        0.1508
      5 C          62.2566   89.9912   10.2941 C.3     1  UNL1        0.0255
      6 C          62.6321   89.1553   11.4817 C.3     1  UNL1        0.0087
      7 C          63.0076   88.3195   12.6692 C.3     1  UNL1        0.0004
      8 C          64.0627   88.8000   13.6211 C.3     1  UNL1        0.0020
      9 C          64.7422   90.1162   13.3854 C.3     1  UNL1        0.0268
     10 C          64.3667   90.9521   12.1979 C.3     1  UNL1        0.1419
     11 C          65.0462   92.2684   11.9622 C.ar    1  UNL1        0.0616
     12 C          66.1013   92.7489   12.9140 C.ar    1  UNL1        0.1407
     13 F          66.7079   92.1888   14.1664 F       1  UNL1       -0.2043
     14 C          66.7808   94.0652   12.6784 C.ar    1  UNL1        0.0319
     15 C          66.4053   94.9011   11.4908 C.ar    1  UNL1        0.0351
     16 C          65.3503   94.4206   10.5389 C.ar    1  UNL1        0.1737
     17 F          64.9748   95.2565    9.3513 F       1  UNL1       -0.2010
     18 C          64.6707   93.1043   10.7746 C.ar    1  UNL1        0.1654
     19 O          63.6157   92.6238    9.8227 O.3     1  UNL1       -0.4733
     20 C          62.9362   91.3075   10.0584 C.3     1  UNL1        0.2074
     21 C          63.3117   90.4716   11.2460 C.3     1  UNL1        0.0685
     22 C          61.9526   87.8391   11.7174 C.3     1  UNL1        0.0255
     23 C          60.8976   87.3586   10.7655 C.3     1  UNL1        0.1508
     24 S          65.4217   91.4325   13.1498 S.O2    1  UNL1        0.0093
     25 O          66.1851   91.3484   12.9360 O.2     1  UNL1       -0.1684
     26 O          64.6430   91.9706   14.3134 O.2     1  UNL1       -0.1684
     27 C          66.4768   91.9130   14.1016 C.ar    1  UNL1        0.1059
     28 C          66.0812   92.5934   15.3786 C.ar    1  UNL1        0.0192
     29 C          67.1362   93.0738   16.3304 C.ar    1  UNL1        0.0127
     30 C          68.5869   92.8739   16.0054 C.ar    1  UNL1        0.0578
     31 CL         69.6419   93.3543   16.9573 Cl      1  UNL1       -0.0822
     32 C          68.9825   92.1934   14.7284 C.ar    1  UNL1        0.0127
     33 C          67.9275   91.7130   13.7765 C.ar    1  UNL1        0.0192
@<TRIPOS>BOND
     1     1     2    2
     2     2     3    2
     3     2     4    1
     4     4     5    1
     5     5     6    1
     6     6     7    1
     7     7     8    1
     8     8     9    1
     9     9    10    1
    10    10    24    1
    11    24    25    2
    12    24    26    2
    13    24    27    1
    14    27    28   ar
    15    28    29   ar
    16    29    30   ar
    17    30    31    1
    18    30    32   ar
    19    32    33   ar
    20    10    11    1
    21    11    12   ar
    22    12    13    1
    23    12    14   ar
    24    14    15   ar
    25    15    16   ar
    26    16    17    1
    27    16    18   ar
    28    18    19    1
    29    19    20    1
    30    21    20    1
    31     6    22    1
    32    22    23    1
    33    23     2    1
    34    21     6    1
    35    21    10    1
    36    33    27   ar
    37    18    11   ar
@<TRIPOS>MOLECULE
*****
 33 37 0 0 0
SMALL
GASTEIGER

@<TRIPOS>ATOM
      1 O          59.7082   90.5978    5.8968 O.2     1  UNL1       -0.1730
      2 S          59.6581   91.4659    4.6745 S.O2    1  UNL1       -0.0100
      3 O          58.2202   91.5279    5.0971 O.2     1  UNL1       -0.1730
      4 C          59.1087   92.3555    3.5991 C.3     1  UNL1        0.1508
      5 C          60.0146   92.8817    2.5255 C.3     1  UNL1        0.0255
      6 C          61.4699   92.5183    2.5274 C.3     1  UNL1        0.0087
      7 C          62.9252   92.1549    2.5294 C.3     1  UNL1        0.0004
      8 C          63.8310   92.6811    1.4558 C.3     1  UNL1        0.0020
      9 C          63.2816   93.5707    0.3803 C.3     1  UNL1        0.0268
     10 C          61.8264   93.9341    0.3784 C.3     1  UNL1        0.1419
     11 C          61.2769   94.8238   -0.6971 C.ar    1  UNL1        0.0616
     12 C          62.1828   95.3499   -1.7707 C.ar    1  UNL1        0.1407
     13 F          63.6446   95.1951   -2.0690 F       1  UNL1       -0.2043
     14 C          61.6333   96.2396   -2.8462 C.ar    1  UNL1        0.0319
     15 C          60.1780   96.6030   -2.8481 C.ar    1  UNL1        0.0351
     16 C          59.2721   96.0768   -1.7746 C.ar    1  UNL1        0.1737
     17 F          57.8169   96.4403   -1.7765 F       1  UNL1       -0.2010
     18 C          59.8216   95.1872   -0.6990 C.ar    1  UNL1        0.1654
     19 O          58.9157   94.6610    0.3745 O.3     1  UNL1       -0.4733
     20 C          59.4651   93.7714    1.4500 C.3     1  UNL1        0.2074
     21 C          60.9205   93.4079    1.4520 C.3     1  UNL1        0.0685
     22 C          62.0193   91.6287    3.6029 C.3     1  UNL1        0.0255
     23 C          61.1134   91.1025    4.6765 C.3     1  UNL1        0.1508
     24 S          62.7322   94.4603   -0.6952 S.O2    1  UNL1        0.0093
     25 O          63.1839   95.0949   -0.5259 O.2     1  UNL1       -0.1684
     26 O          62.4848   93.5468   -1.8589 O.2     1  UNL1       -0.1684
     27 C          63.6381   94.9865   -1.7687 C.ar    1  UNL1        0.1059
     28 C          64.3643   96.2835   -1.5682 C.ar    1  UNL1        0.0192
     29 C          65.2701   96.8097   -2.6417 C.ar    1  UNL1        0.0127
     30 C          65.4498   96.0389   -3.9158 C.ar    1  UNL1        0.0578
     31 CL         66.3557   96.5650   -4.9894 Cl      1  UNL1       -0.0822
     32 C          64.7237   94.7417   -4.1164 C.ar    1  UNL1        0.0127
     33 C          63.8178   94.2155   -3.0429 C.ar    1  UNL1        0.0192
@<TRIPOS>BOND
     1     1     2    2
     2     2     3    2
     3     2     4    1
     4     4     5    1
     5     5     6    1
     6     6     7    1
     7     7     8    1
     8     8     9    1
     9     9    10    1
    10    10    24    1
    11    24    25    2
    12    24    26    2
    13    24    27    1
    14    27    28   ar
    15    28    29   ar
    16    29    30   ar
    17    30    31    1
    18    30    32   ar
    19    32    33   ar
    20    10    11    1
    21    11    12   ar
    22    12    13    1
    23    12    14   ar
    24    14    15   ar
    25    15    16   ar
    26    16    17    1
    27    16    18   ar
    28    18    19    1
    29    19    20    1
    30    21    20    1
    31     6    22    1
    32    22    23    1
    33    23     2    1
    34    21     6    1
    35    21    10    1
    36    33    27   ar
    37    18    11   ar
@<TRIPOS>MOLECULE
*****
 33 37 0 0 0
SMALL
GASTEIGER

@<TRIPOS>ATOM
      1 O          64.5602   92.5768   15.8143 O.2     1  UNL1       -0.1730
      2 S          64.3132   91.1835   15.3164 S.O2    1  UNL1       -0.0100
      3 O          64.7156   90.8873   16.7308 O.2     1  UNL1       -0.1730
      4 C          64.2060   89.6874   15.3098 C.3     1  UNL1        0.1508
      5 C          63.7822   88.9714   14.0617 C.3     1  UNL1        0.0255
      6 C          63.4656   89.7515   12.8203 C.3     1  UNL1        0.0087
      7 C          63.1489   90.5315   11.5789 C.3     1  UNL1        0.0004
      8 C          62.7251   89.8155   10.3308 C.3     1  UNL1        0.0020
      9 C          62.6179   88.3194   10.3242 C.3     1  UNL1        0.0268
     10 C          62.9345   87.5393   11.5656 C.3     1  UNL1        0.1419
     11 C          62.8273   86.0431   11.5590 C.ar    1  UNL1        0.0616
     12 C          62.4034   85.3271   10.3109 C.ar    1  UNL1        0.1407
     13 F          62.0220   85.7750    8.9311 F       1  UNL1       -0.2043
     14 C          62.2962   83.8310   10.3043 C.ar    1  UNL1        0.0319
     15 C          62.6128   83.0508   11.5457 C.ar    1  UNL1        0.0351
     16 C          63.0367   83.7668   12.7938 C.ar    1  UNL1        0.1737
     17 F          63.3533   82.9867   14.0352 F       1  UNL1       -0.2010
     18 C          63.1439   85.2630   12.8004 C.ar    1  UNL1        0.1654
     19 O          63.5677   85.9791   14.0485 O.3     1  UNL1       -0.4733
     20 C          63.6749   87.4752   14.0551 C.3     1  UNL1        0.2074
     21 C          63.3583   88.2553   12.8136 C.3     1  UNL1        0.0685
     22 C          63.5728   91.2476   12.8269 C.3     1  UNL1        0.0255
     23 C          63.9966   91.9636   14.0750 C.3     1  UNL1        0.1508
     24 S          62.5106   86.8233   10.3175 S.O2    1  UNL1        0.0093
     25 O          62.9851   86.8717    9.6788 O.2     1  UNL1       -0.1684
     26 O          61.2082   86.1805   10.6923 O.2     1  UNL1       -0.1684
     27 C          62.0868   86.1073    9.0695 C.ar    1  UNL1        0.1059
     28 C          60.6508   86.1392    8.6374 C.ar    1  UNL1        0.0192
     29 C          60.2269   85.4232    7.3893 C.ar    1  UNL1        0.0127
     30 C          61.2391   84.6752    6.5733 C.ar    1  UNL1        0.0578
     31 CL         60.8153   83.9592    5.3253 Cl      1  UNL1       -0.0822
     32 C          62.6752   84.6432    7.0054 C.ar    1  UNL1        0.0127
     33 C          63.0991   85.3592    8.2534 C.ar    1  UNL1        0.0192
@<TRIPOS>BOND
     1     1     2    2
     2     2     3    2
     3     2     4    1
     4     4     5    1
     5     5     6    1
     6     6     7    1
     7     7     8    1
     8     8     9    1
     9     9    10    1
    10    10    24    1
    11    24    25    2
    12    24    26    2
    13    24    27    1
    14    27    28   ar
    15    28    29   ar
    16    29    30   ar
    17    30    31    1
    18    30    32   ar
    19    32    33   ar
    20    10    11    1
    21    11    12   ar
    22    12    13    1
    23    12    14   ar
    24    14    15   ar
    25    15    16   ar
    26    16    17    1
    27    16    18   ar
    28    18    19    1
    29    19    20    1
    30    21    20    1
    31     6    22    1
    32    22    23    1
    33    23     2    1
    34    21     6    1
    35    21    10    1
    36    33    27   ar
    37    18    11   ar
@<TRIPOS>MOLECULE
*****
 33 37 0 0 0
SMALL
GASTEIGER

@<TRIPOS>ATOM
      1 O          55.3254   91.4460   -4.6970 O.2     1  UNL1       -0.1730
      2 S          56.6606   92.1136   -4.5498 S.O2    1  UNL1       -0.0100
      3 O          56.5440   92.0910   -6.0452 O.2     1  UNL1       -0.1730
      4 C          57.9553   92.7733   -4.9220 C.3     1  UNL1        0.1508
      5 C          58.9029   93.2238   -3.8500 C.3     1  UNL1        0.0255
      6 C          58.5558   93.0145   -2.4058 C.3     1  UNL1        0.0087
      7 C          58.2087   92.8052   -0.9616 C.3     1  UNL1        0.0004
      8 C          59.1562   93.2556    0.1104 C.3     1  UNL1        0.0020
      9 C          60.4509   93.9154   -0.2618 C.3     1  UNL1        0.0268
     10 C          60.7980   94.1247   -1.7059 C.3     1  UNL1        0.1419
     11 C          62.0927   94.7844   -2.0782 C.ar    1  UNL1        0.0616
     12 C          63.0403   95.2349   -1.0062 C.ar    1  UNL1        0.1407
     13 F          63.0167   95.1868    0.4929 F       1  UNL1       -0.2043
     14 C          64.3350   95.8946   -1.3783 C.ar    1  UNL1        0.0319
     15 C          64.6821   96.1039   -2.8225 C.ar    1  UNL1        0.0351
     16 C          63.7346   95.6535   -3.8946 C.ar    1  UNL1        0.1737
     17 F          64.0816   95.8627   -5.3387 F       1  UNL1       -0.2010
     18 C          62.4398   94.9937   -3.5223 C.ar    1  UNL1        0.1654
     19 O          61.4923   94.5433   -4.5943 O.3     1  UNL1       -0.4733
     20 C          60.1976   93.8835   -4.2222 C.3     1  UNL1        0.2074
     21 C          59.8504   93.6742   -2.7780 C.3     1  UNL1        0.0685
     22 C          57.2611   92.3548   -2.0336 C.3     1  UNL1        0.0255
     23 C          56.3135   91.9043   -3.1057 C.3     1  UNL1        0.1508
     24 S          61.7456   94.5751   -0.6339 S.O2    1  UNL1        0.0093
     25 O          61.6962   95.3304   -0.3839 O.2     1  UNL1       -0.1684
     26 O          62.5660   93.3546   -0.3383 O.2     1  UNL1       -0.1684
     27 C          62.6931   95.0255    0.4381 C.ar    1  UNL1        0.1059
     28 C          62.5682   96.4026    1.0193 C.ar    1  UNL1        0.0192
     29 C          63.5157   96.8531    2.0914 C.ar    1  UNL1        0.0127
     30 C          64.5883   95.9264    2.5821 C.ar    1  UNL1        0.0578
     31 CL         65.5358   96.3769    3.6541 Cl      1  UNL1       -0.0822
     32 C          64.7133   94.5492    2.0009 C.ar    1  UNL1        0.0127
     33 C          63.7657   94.0988    0.9288 C.ar    1  UNL1        0.0192
@<TRIPOS>BOND
     1     1     2    2
     2     2     3    2
     3     2     4    1
     4     4     5    1
     5     5     6    1
     6     6     7    1
     7     7     8    1
     8     8     9    1
     9     9    10    1
    10    10    24    1
    11    24    25    2
    12    24    26    2
    13    24    27    1
    14    27    28   ar
    15    28    29   ar
    16    29    30   ar
    17    30    31    1
    18    30    32   ar
    19    32    33   ar
    20    10    11    1
    21    11    12   ar
    22    12    13    1
    23    12    14   ar
    24    14    15   ar
    25    15    16   ar
    26    16    17    1
    27    16    18   ar
    28    18    19    1
    29    19    20    1
    30    21    20    1
    31     6    22    1
    32    22    23    1
    33    23     2    1
    34    21     6    1
    35    21    10    1
    36    33    27   ar
    37    18    11   ar
@<TRIPOS>MOLECULE
*****
 33 37 0 0 0
SMALL
GASTEIGER

@<TRIPOS>ATOM
      1 O          63.0003   92.3523    3.3085 O.2     1  UNL1       -0.1730
      2 S          62.7819   92.7095    1.8680 S.O2    1  UNL1       -0.0100
      3 O          64.2788   92.6154    1.8890 O.2     1  UNL1       -0.1730
      4 C          63.0833   93.0339    0.4349 C.3     1  UNL1        0.1508
      5 C          61.9637   93.3284   -0.5189 C.3     1  UNL1        0.0255
      6 C          60.5427   93.2985   -0.0396 C.3     1  UNL1        0.0087
      7 C          59.1216   93.2685    0.4397 C.3     1  UNL1        0.0004
      8 C          58.0020   93.5630   -0.5141 C.3     1  UNL1        0.0020
      9 C          58.3034   93.8875   -1.9472 C.3     1  UNL1        0.0268
     10 C          59.7245   93.9174   -2.4265 C.3     1  UNL1        0.1419
     11 C          60.0259   94.2418   -3.8597 C.ar    1  UNL1        0.0616
     12 C          58.9063   94.5363   -4.8135 C.ar    1  UNL1        0.1407
     13 F          57.4132   94.5937   -4.6818 F       1  UNL1       -0.2043
     14 C          59.2077   94.8607   -6.2466 C.ar    1  UNL1        0.0319
     15 C          60.6288   94.8907   -6.7260 C.ar    1  UNL1        0.0351
     16 C          61.7484   94.5962   -5.7722 C.ar    1  UNL1        0.1737
     17 F          63.1694   94.6261   -6.2515 F       1  UNL1       -0.2010
     18 C          61.4469   94.2717   -4.3390 C.ar    1  UNL1        0.1654
     19 O          62.5666   93.9772   -3.3852 O.3     1  UNL1       -0.4733
     20 C          62.2651   93.6528   -1.9521 C.3     1  UNL1        0.2074
     21 C          60.8441   93.6229   -1.4727 C.3     1  UNL1        0.0685
     22 C          60.2413   92.9740    1.3935 C.3     1  UNL1        0.0255
     23 C          61.3609   92.6795    2.3473 C.3     1  UNL1        0.1508
     24 S          58.6049   94.2119   -3.3803 S.O2    1  UNL1        0.0093
     25 O          58.3859   94.9722   -3.4772 O.2     1  UNL1       -0.1684
     26 O          58.2090   92.8628   -3.9030 O.2     1  UNL1       -0.1684
     27 C          57.4852   94.5064   -4.3341 C.ar    1  UNL1        0.1059
     28 C          56.9960   95.9140   -4.5047 C.ar    1  UNL1        0.0192
     29 C          55.8764   96.2085   -5.4585 C.ar    1  UNL1        0.0127
     30 C          55.2460   95.0954   -6.2417 C.ar    1  UNL1        0.0578
     31 CL         54.1264   95.3899   -7.1955 Cl      1  UNL1       -0.0822
     32 C          55.7353   93.6877   -6.0712 C.ar    1  UNL1        0.0127
     33 C          56.8549   93.3932   -5.1174 C.ar    1  UNL1        0.0192
@<TRIPOS>BOND
     1     1     2    2
     2     2     3    2
     3     2     4    1
     4     4     5    1
     5     5     6    1
     6     6     7    1
     7     7     8    1
     8     8     9    1
     9     9    10    1
    10    10    24    1
    11    24    25    2
    12    24    26    2
    13    24    27    1
    14    27    28   ar
    15    28    29   ar
    16    29    30   ar
    17    30    31    1
    18    30    32   ar
    19    32    33   ar
    20    10    11    1
    21    11    12   ar
    22    12    13    1
    23    12    14   ar
    24    14    15   ar
    25    15    16   ar
    26    16    17    1
    27    16    18   ar
    28    18    19    1
    29    19    20    1
    30    21    20    1
    31     6    22    1
    32    22    23    1
    33    23     2    1
    34    21     6    1
    35    21    10    1
    36    33    27   ar
    37    18    11   ar
