@<TRIPOS>MOLECULE
*****
 29 31 0 0 0
SMALL
GASTEIGER

@<TRIPOS>ATOM
      1 C          62.6638   85.3627   11.4909 C.ar    1  UNL1        0.1344
      2 C          62.7930   85.0267   10.0347 C.ar    1  UNL1        0.0310
      3 C          61.9220   85.7152    9.0261 C.ar    1  UNL1       -0.0067
      4 C          62.0512   85.3793    7.5699 C.3     1  UNL1        0.0319
      5 C          60.9219   86.7396    9.4736 C.ar    1  UNL1        0.0959
      6 C          60.7927   87.0756   10.9298 C.ar    1  UNL1        0.1393
      7 N          61.6636   86.3871   11.9384 N.ar    1  UNL1       -0.2154
      8 N          63.5347   84.6741   12.4996 N.pl3   1  UNL1       -0.2819
      9 H          64.4204   85.0438   12.7192 H       1  UNL1        0.1551
     10 C          62.0860   79.6685   13.3513 C.3     1  UNL1        0.0515
     11 C          62.3904   81.1217   13.5652 C.ar    1  UNL1        0.0548
     12 C          62.8889   82.0805   12.5249 C.ar    1  UNL1        0.0502
     13 C          63.0563   83.4225   13.1737 C.ar    1  UNL1        0.1539
     14 N          62.6612   83.2931   14.6150 N.ar    1  UNL1       -0.1577
     15 N          62.2497   81.8711   14.8570 N.ar    1  UNL1       -0.2786
     16 H          61.9413   81.4956   15.7132 H       1  UNL1        0.1886
     17 C          60.0509   87.4282    8.4649 C.1     1  UNL1        0.1029
     18 N          59.1800   88.1166    7.4563 N.1     1  UNL1       -0.1907
     19 N          59.7925   88.1000   11.3773 N.pl3   1  UNL1       -0.3145
     20 H          58.8421   87.8568   11.4599 H       1  UNL1        0.1483
     21 C          60.2404   89.4950   11.6989 C.3     1  UNL1        0.1362
     22 C          61.2031   90.2016   10.7912 C.3     1  UNL1        0.2266
     23 O          62.6687   89.8901   10.8636 O.3     1  UNL1       -0.4720
     24 C          63.4354   90.1781   12.1203 C.ar    1  UNL1        0.1577
     25 C          63.6593   89.0901   13.1283 C.ar    1  UNL1        0.0401
     26 C          64.4260   89.3781   14.3850 C.ar    1  UNL1        0.0238
     27 C          64.9689   90.7542   14.6336 C.ar    1  UNL1        0.0991
     28 N          64.7450   91.8422   13.6255 N.ar    1  UNL1       -0.2391
     29 C          63.9783   91.5541   12.3689 C.ar    1  UNL1        0.1356
@<TRIPOS>BOND
     1    10    11    1
     2    11    12   ar
     3    12    13   ar
     4    13     8    1
     5     8     1    1
     6     1     2   ar
     7     2     3   ar
     8     3     4    1
     9     3     5   ar
    10     5    17    1
    11    17    18    3
    12     5     6   ar
    13     6    19    1
    14    19    21    1
    15    21    22    1
    16    22    23    1
    17    23    24    1
    18    24    25   ar
    19    25    26   ar
    20    26    27   ar
    21    27    28   ar
    22    28    29   ar
    23     6     7   ar
    24    13    14   ar
    25    14    15   ar
    26    15    11   ar
    27     7     1   ar
    28    29    24   ar
    29     8     9    1
    30    19    20    1
    31    15    16    1
@<TRIPOS>MOLECULE
*****
 29 31 0 0 0
SMALL
GASTEIGER

@<TRIPOS>ATOM
      1 C          62.4848   85.7679   10.7905 C.ar    1  UNL1        0.1344
      2 C          63.0082   84.5122   10.1585 C.ar    1  UNL1        0.0310
      3 C          63.3545   83.3300   11.0143 C.ar    1  UNL1       -0.0067
      4 C          63.8780   82.0743   10.3824 C.3     1  UNL1        0.0319
      5 C          63.1774   83.4034   12.5020 C.ar    1  UNL1        0.0959
      6 C          62.6540   84.6590   13.1339 C.ar    1  UNL1        0.1393
      7 N          62.3077   85.8413   12.2782 N.ar    1  UNL1       -0.2154
      8 N          62.1384   86.9502    9.9347 N.pl3   1  UNL1       -0.2819
      9 H          62.2201   86.8899    8.9555 H       1  UNL1        0.1551
     10 C          59.0326   90.8791   11.6073 C.3     1  UNL1        0.0515
     11 C          60.2401   90.0303   11.3398 C.ar    1  UNL1        0.0548
     12 C          60.2533   88.7228   10.6047 C.ar    1  UNL1        0.0502
     13 C          61.6676   88.2243   10.5710 C.ar    1  UNL1        0.1539
     14 N          62.5285   89.2237   11.2852 N.ar    1  UNL1       -0.1577
     15 N          61.6463   90.3399   11.7604 N.ar    1  UNL1       -0.2786
     16 H          61.9387   91.1359   12.2605 H       1  UNL1        0.1886
     17 C          63.5238   82.2211   13.3578 C.1     1  UNL1        0.1029
     18 N          63.8701   81.0389   14.2135 N.1     1  UNL1       -0.1907
     19 N          62.4769   84.7324   14.6216 N.pl3   1  UNL1       -0.3145
     20 H          61.6218   84.4646   15.0294 H       1  UNL1        0.1483
     21 C          63.6027   85.2138   15.4881 C.3     1  UNL1        0.1362
     22 C          64.4395   86.3797   15.0515 C.3     1  UNL1        0.2266
     23 O          63.7937   87.5592   14.3868 O.3     1  UNL1       -0.4720
     24 C          63.9513   88.9304   14.9743 C.ar    1  UNL1        0.1577
     25 C          64.8679   89.9240   14.3241 C.ar    1  UNL1        0.0401
     26 C          65.0255   91.2952   14.9116 C.ar    1  UNL1        0.0238
     27 C          64.2666   91.6726   16.1492 C.ar    1  UNL1        0.0991
     28 N          63.3501   90.6790   16.7993 N.ar    1  UNL1       -0.2391
     29 C          63.1925   89.3078   16.2118 C.ar    1  UNL1        0.1356
@<TRIPOS>BOND
     1    10    11    1
     2    11    12   ar
     3    12    13   ar
     4    13     8    1
     5     8     1    1
     6     1     2   ar
     7     2     3   ar
     8     3     4    1
     9     3     5   ar
    10     5    17    1
    11    17    18    3
    12     5     6   ar
    13     6    19    1
    14    19    21    1
    15    21    22    1
    16    22    23    1
    17    23    24    1
    18    24    25   ar
    19    25    26   ar
    20    26    27   ar
    21    27    28   ar
    22    28    29   ar
    23     6     7   ar
    24    13    14   ar
    25    14    15   ar
    26    15    11   ar
    27     7     1   ar
    28    29    24   ar
    29     8     9    1
    30    19    20    1
    31    15    16    1
@<TRIPOS>MOLECULE
*****
 29 31 0 0 0
SMALL
GASTEIGER

@<TRIPOS>ATOM
      1 C          61.7768   89.9654   10.9890 C.ar    1  UNL1        0.1344
      2 C          62.8204   90.8679   10.4005 C.ar    1  UNL1        0.0310
      3 C          63.9099   91.4216   11.2701 C.ar    1  UNL1       -0.0067
      4 C          64.9535   92.3242   10.6815 C.3     1  UNL1        0.0319
      5 C          63.9559   91.0728   12.7282 C.ar    1  UNL1        0.0959
      6 C          62.9124   90.1703   13.3168 C.ar    1  UNL1        0.1393
      7 N          61.8228   89.6166   12.4471 N.ar    1  UNL1       -0.2154
      8 N          60.6872   89.4117   10.1194 N.pl3   1  UNL1       -0.2819
      9 H          59.8414   89.9048   10.0160 H       1  UNL1        0.1551
     10 C          62.8962   84.9889    8.2647 C.3     1  UNL1        0.0515
     11 C          61.9017   86.0737    8.5548 C.ar    1  UNL1        0.0548
     12 C          62.1505   87.2997    9.3824 C.ar    1  UNL1        0.0502
     13 C          60.8863   88.1066    9.4073 C.ar    1  UNL1        0.1539
     14 N          59.8561   87.3793    8.5950 N.ar    1  UNL1       -0.1577
     15 N          60.4836   86.1229    8.0681 N.ar    1  UNL1       -0.2786
     16 H          60.0423   85.4489    7.5022 H       1  UNL1        0.1886
     17 C          65.0455   91.6265   13.5978 C.1     1  UNL1        0.1029
     18 N          66.1351   92.1803   14.4674 N.1     1  UNL1       -0.1907
     19 N          62.9584   89.8214   14.7749 N.pl3   1  UNL1       -0.3145
     20 H          62.3201   90.2346   15.4003 H       1  UNL1        0.1483
     21 C          63.9769   88.8431   15.2803 C.3     1  UNL1        0.1362
     22 C          64.2592   87.5883   14.5083 C.3     1  UNL1        0.2266
     23 O          63.9429   86.2508   15.1093 O.3     1  UNL1       -0.4720
     24 C          63.6256   85.0852   14.2202 C.ar    1  UNL1        0.1577
     25 C          63.1599   85.3197   12.8137 C.ar    1  UNL1        0.0401
     26 C          62.8426   84.1541   11.9245 C.ar    1  UNL1        0.0238
     27 C          62.9910   82.7539   12.4419 C.ar    1  UNL1        0.0991
     28 N          63.4566   82.5195   13.8483 N.ar    1  UNL1       -0.2391
     29 C          63.7740   83.6851   14.7374 C.ar    1  UNL1        0.1356
@<TRIPOS>BOND
     1    10    11    1
     2    11    12   ar
     3    12    13   ar
     4    13     8    1
     5     8     1    1
     6     1     2   ar
     7     2     3   ar
     8     3     4    1
     9     3     5   ar
    10     5    17    1
    11    17    18    3
    12     5     6   ar
    13     6    19    1
    14    19    21    1
    15    21    22    1
    16    22    23    1
    17    23    24    1
    18    24    25   ar
    19    25    26   ar
    20    26    27   ar
    21    27    28   ar
    22    28    29   ar
    23     6     7   ar
    24    13    14   ar
    25    14    15   ar
    26    15    11   ar
    27     7     1   ar
    28    29    24   ar
    29     8     9    1
    30    19    20    1
    31    15    16    1
@<TRIPOS>MOLECULE
*****
 29 31 0 0 0
SMALL
GASTEIGER

@<TRIPOS>ATOM
      1 C          64.8548   91.9253   12.4820 C.ar    1  UNL1        0.1344
      2 C          64.1412   91.7935   11.1692 C.ar    1  UNL1        0.0310
      3 C          63.2102   90.6411   10.9340 C.ar    1  UNL1       -0.0067
      4 C          62.4966   90.5093    9.6212 C.3     1  UNL1        0.0319
      5 C          62.9929   89.6205   12.0116 C.ar    1  UNL1        0.0959
      6 C          63.7065   89.7523   13.3243 C.ar    1  UNL1        0.1393
      7 N          64.6374   90.9047   13.5595 N.ar    1  UNL1       -0.2154
      8 N          65.7858   93.0777   12.7172 N.pl3   1  UNL1       -0.2819
      9 H          65.9257   93.4191   13.6300 H       1  UNL1        0.1551
     10 C          67.2450   96.5185    8.9873 C.3     1  UNL1        0.0515
     11 C          67.1742   95.2915    9.8474 C.ar    1  UNL1        0.0548
     12 C          66.2236   95.0663   10.9855 C.ar    1  UNL1        0.0502
     13 C          66.5035   93.7100   11.5618 C.ar    1  UNL1        0.1539
     14 N          67.6272   93.0970   10.7797 N.ar    1  UNL1       -0.1577
     15 N          68.0417   94.0744    9.7201 N.ar    1  UNL1       -0.2786
     16 H          68.7575   93.9406    9.0575 H       1  UNL1        0.1886
     17 C          62.0619   88.4681   11.7763 C.1     1  UNL1        0.1029
     18 N          61.1310   87.3158   11.5411 N.1     1  UNL1       -0.1907
     19 N          63.4892   88.7317   14.4019 N.pl3   1  UNL1       -0.3145
     20 H          62.6442   88.7215   14.9070 H       1  UNL1        0.1483
     21 C          64.5593   87.7267   14.7099 C.3     1  UNL1        0.1362
     22 C          64.2587   86.2599   14.6203 C.3     1  UNL1        0.2266
     23 O          63.3402   85.7464   13.5513 O.3     1  UNL1       -0.4720
     24 C          63.0246   84.2820   13.4734 C.ar    1  UNL1        0.1577
     25 C          62.8339   83.6259   12.1380 C.ar    1  UNL1        0.0401
     26 C          62.5183   82.1615   12.0602 C.ar    1  UNL1        0.0238
     27 C          62.3935   81.3533   13.3177 C.ar    1  UNL1        0.0991
     28 N          62.5842   82.0095   14.6530 N.ar    1  UNL1       -0.2391
     29 C          62.8998   83.4738   14.7308 C.ar    1  UNL1        0.1356
@<TRIPOS>BOND
     1    10    11    1
     2    11    12   ar
     3    12    13   ar
     4    13     8    1
     5     8     1    1
     6     1     2   ar
     7     2     3   ar
     8     3     4    1
     9     3     5   ar
    10     5    17    1
    11    17    18    3
    12     5     6   ar
    13     6    19    1
    14    19    21    1
    15    21    22    1
    16    22    23    1
    17    23    24    1
    18    24    25   ar
    19    25    26   ar
    20    26    27   ar
    21    27    28   ar
    22    28    29   ar
    23     6     7   ar
    24    13    14   ar
    25    14    15   ar
    26    15    11   ar
    27     7     1   ar
    28    29    24   ar
    29     8     9    1
    30    19    20    1
    31    15    16    1
@<TRIPOS>MOLECULE
*****
 29 31 0 0 0
SMALL
GASTEIGER

@<TRIPOS>ATOM
      1 C          61.1731   89.1144   11.3938 C.ar    1  UNL1        0.1344
      2 C          60.5834   89.5845   10.0972 C.ar    1  UNL1        0.0310
      3 C          60.3379   88.6066    8.9866 C.ar    1  UNL1       -0.0067
      4 C          59.7482   89.0768    7.6899 C.3     1  UNL1        0.0319
      5 C          60.6819   87.1585    9.1727 C.ar    1  UNL1        0.0959
      6 C          61.2716   86.6883   10.4693 C.ar    1  UNL1        0.1393
      7 N          61.5171   87.6663   11.5798 N.ar    1  UNL1       -0.2154
      8 N          61.4186   90.0923   12.5044 N.pl3   1  UNL1       -0.2819
      9 H          60.6948   90.6882   12.8046 H       1  UNL1        0.1551
     10 C          66.2970   91.6435   13.7990 C.3     1  UNL1        0.0515
     11 C          65.0094   90.8753   13.7526 C.ar    1  UNL1        0.0548
     12 C          63.8303   91.1828   12.8780 C.ar    1  UNL1        0.0502
     13 C          62.7671   90.1623   13.1576 C.ar    1  UNL1        0.1539
     14 N          63.2892   89.2240   14.2050 N.ar    1  UNL1       -0.1577
     15 N          64.6751   89.6646   14.5728 N.ar    1  UNL1       -0.2786
     16 H          65.2621   89.2348   15.2360 H       1  UNL1        0.1886
     17 C          60.4364   86.1806    8.0621 C.1     1  UNL1        0.1029
     18 N          60.1908   85.2027    6.9515 N.1     1  UNL1       -0.1907
     19 N          61.6157   85.2402   10.6554 N.pl3   1  UNL1       -0.3145
     20 H          61.0472   84.5437   10.2541 H       1  UNL1        0.1483
     21 C          62.8258   84.8533   11.4527 C.3     1  UNL1        0.1362
     22 C          63.0847   83.4105   11.7706 C.3     1  UNL1        0.2266
     23 O          63.3866   82.9955   13.1801 O.3     1  UNL1       -0.4720
     24 C          63.3738   84.0143   14.2809 C.ar    1  UNL1        0.1577
     25 C          64.5251   84.9630   14.4382 C.ar    1  UNL1        0.0401
     26 C          64.5124   85.9818   15.5390 C.ar    1  UNL1        0.0238
     27 C          63.3483   86.0521   16.4826 C.ar    1  UNL1        0.0991
     28 N          62.1971   85.1034   16.3252 N.ar    1  UNL1       -0.2391
     29 C          62.2099   84.0846   15.2244 C.ar    1  UNL1        0.1356
@<TRIPOS>BOND
     1    10    11    1
     2    11    12   ar
     3    12    13   ar
     4    13     8    1
     5     8     1    1
     6     1     2   ar
     7     2     3   ar
     8     3     4    1
     9     3     5   ar
    10     5    17    1
    11    17    18    3
    12     5     6   ar
    13     6    19    1
    14    19    21    1
    15    21    22    1
    16    22    23    1
    17    23    24    1
    18    24    25   ar
    19    25    26   ar
    20    26    27   ar
    21    27    28   ar
    22    28    29   ar
    23     6     7   ar
    24    13    14   ar
    25    14    15   ar
    26    15    11   ar
    27     7     1   ar
    28    29    24   ar
    29     8     9    1
    30    19    20    1
    31    15    16    1
@<TRIPOS>MOLECULE
*****
 29 31 0 0 0
SMALL
GASTEIGER

@<TRIPOS>ATOM
      1 C          61.7344   89.0406   11.4497 C.ar    1  UNL1        0.1344
      2 C          60.9475   89.5357   10.2727 C.ar    1  UNL1        0.0310
      3 C          60.5740   88.5909    9.1692 C.ar    1  UNL1       -0.0067
      4 C          59.7870   89.0860    7.9921 C.3     1  UNL1        0.0319
      5 C          60.9875   87.1509    9.2428 C.ar    1  UNL1        0.0959
      6 C          61.7744   86.6557   10.4198 C.ar    1  UNL1        0.1393
      7 N          62.1479   87.6006   11.5233 N.ar    1  UNL1       -0.2154
      8 N          62.1080   89.9855   12.5533 N.pl3   1  UNL1       -0.2819
      9 H          61.5624   90.0266   13.3718 H       1  UNL1        0.1551
     10 C          65.9713   92.9063   10.4501 C.3     1  UNL1        0.0515
     11 C          65.0884   92.2101   11.4430 C.ar    1  UNL1        0.0548
     12 C          63.8945   91.3620   11.1186 C.ar    1  UNL1        0.0502
     13 C          63.3126   90.8676   12.4097 C.ar    1  UNL1        0.1539
     14 N          64.1469   91.4101   13.5320 N.ar    1  UNL1       -0.1577
     15 N          65.2444   92.2399   12.9346 N.ar    1  UNL1       -0.2786
     16 H          65.9443   92.7197   13.4338 H       1  UNL1        0.1886
     17 C          60.6139   86.2060    8.1392 C.1     1  UNL1        0.1029
     18 N          60.2404   85.2612    7.0357 N.1     1  UNL1       -0.1907
     19 N          62.1879   85.2157   10.4934 N.pl3   1  UNL1       -0.3145
     20 H          61.6924   84.5901   11.0699 H       1  UNL1        0.1483
     21 C          63.3563   84.7288    9.6886 C.3     1  UNL1        0.1362
     22 C          63.9288   83.3665    9.9461 C.3     1  UNL1        0.2266
     23 O          64.4491   83.0169   11.3088 O.3     1  UNL1       -0.4720
     24 C          63.5257   82.4344   12.3375 C.ar    1  UNL1        0.1577
     25 C          63.0617   81.0136   12.2101 C.ar    1  UNL1        0.0401
     26 C          62.1383   80.4312   13.2388 C.ar    1  UNL1        0.0238
     27 C          61.6789   81.2695   14.3948 C.ar    1  UNL1        0.0991
     28 N          62.1429   82.6902   14.5221 N.ar    1  UNL1       -0.2391
     29 C          63.0663   83.2727   13.4934 C.ar    1  UNL1        0.1356
@<TRIPOS>BOND
     1    10    11    1
     2    11    12   ar
     3    12    13   ar
     4    13     8    1
     5     8     1    1
     6     1     2   ar
     7     2     3   ar
     8     3     4    1
     9     3     5   ar
    10     5    17    1
    11    17    18    3
    12     5     6   ar
    13     6    19    1
    14    19    21    1
    15    21    22    1
    16    22    23    1
    17    23    24    1
    18    24    25   ar
    19    25    26   ar
    20    26    27   ar
    21    27    28   ar
    22    28    29   ar
    23     6     7   ar
    24    13    14   ar
    25    14    15   ar
    26    15    11   ar
    27     7     1   ar
    28    29    24   ar
    29     8     9    1
    30    19    20    1
    31    15    16    1
@<TRIPOS>MOLECULE
*****
 29 31 0 0 0
SMALL
GASTEIGER

@<TRIPOS>ATOM
      1 C          62.7170   85.1074   11.3767 C.ar    1  UNL1        0.1344
      2 C          62.8649   84.8510    9.9063 C.ar    1  UNL1        0.0310
      3 C          62.0166   85.6038    8.9247 C.ar    1  UNL1       -0.0067
      4 C          62.1645   85.3474    7.4541 C.3     1  UNL1        0.0319
      5 C          61.0205   86.6131    9.4135 C.ar    1  UNL1        0.0959
      6 C          60.8725   86.8696   10.8840 C.ar    1  UNL1        0.1393
      7 N          61.7208   86.1167   11.8656 N.ar    1  UNL1       -0.2154
      8 N          63.5652   84.3546   12.3585 N.pl3   1  UNL1       -0.2819
      9 H          64.3293   83.8209   12.0412 H       1  UNL1        0.1551
     10 C          63.1801   86.0407   17.3474 C.3     1  UNL1        0.0515
     11 C          63.0724   85.1898   16.1167 C.ar    1  UNL1        0.0548
     12 C          63.5637   85.5542   14.7471 C.ar    1  UNL1        0.0502
     13 C          63.2494   84.4148   13.8236 C.ar    1  UNL1        0.1539
     14 N          62.5637   83.3462   14.6224 N.ar    1  UNL1       -0.1577
     15 N          62.4543   83.8252   16.0396 N.ar    1  UNL1       -0.2786
     16 H          62.0482   83.3308   16.7878 H       1  UNL1        0.1886
     17 C          60.1722   87.3660    8.4318 C.1     1  UNL1        0.1029
     18 N          59.3240   88.1188    7.4501 N.1     1  UNL1       -0.1907
     19 N          59.8764   87.8789   11.3728 N.pl3   1  UNL1       -0.3145
     20 H          58.9627   87.5958   11.6059 H       1  UNL1        0.1483
     21 C          60.2722   89.3195   11.5064 C.3     1  UNL1        0.1362
     22 C          61.7226   89.6951   11.5800 C.3     1  UNL1        0.2266
     23 O          62.4557   89.6037   12.8855 O.3     1  UNL1       -0.4720
     24 C          63.6912   90.4239   13.1108 C.ar    1  UNL1        0.1577
     25 C          64.5209   90.2075   14.3416 C.ar    1  UNL1        0.0401
     26 C          65.7565   91.0276   14.5669 C.ar    1  UNL1        0.0238
     27 C          66.1623   92.0642   13.5615 C.ar    1  UNL1        0.0991
     28 N          65.3326   92.2806   12.3307 N.ar    1  UNL1       -0.2391
     29 C          64.0970   91.4604   12.1054 C.ar    1  UNL1        0.1356
@<TRIPOS>BOND
     1    10    11    1
     2    11    12   ar
     3    12    13   ar
     4    13     8    1
     5     8     1    1
     6     1     2   ar
     7     2     3   ar
     8     3     4    1
     9     3     5   ar
    10     5    17    1
    11    17    18    3
    12     5     6   ar
    13     6    19    1
    14    19    21    1
    15    21    22    1
    16    22    23    1
    17    23    24    1
    18    24    25   ar
    19    25    26   ar
    20    26    27   ar
    21    27    28   ar
    22    28    29   ar
    23     6     7   ar
    24    13    14   ar
    25    14    15   ar
    26    15    11   ar
    27     7     1   ar
    28    29    24   ar
    29     8     9    1
    30    19    20    1
    31    15    16    1
@<TRIPOS>MOLECULE
*****
 29 31 0 0 0
SMALL
GASTEIGER

@<TRIPOS>ATOM
      1 C          62.2137   87.7556   10.8823 C.ar    1  UNL1        0.1344
      2 C          62.3997   89.1241   10.2971 C.ar    1  UNL1        0.0310
      3 C          63.1318   90.1785   11.0732 C.ar    1  UNL1       -0.0067
      4 C          63.3179   91.5471   10.4880 C.3     1  UNL1        0.0319
      5 C          63.6779   89.8643   12.4345 C.ar    1  UNL1        0.0959
      6 C          63.4918   88.4958   13.0197 C.ar    1  UNL1        0.1393
      7 N          62.7598   87.4415   12.2436 N.ar    1  UNL1       -0.2154
      8 N          61.4816   86.7012   10.1062 N.pl3   1  UNL1       -0.2819
      9 H          61.5885   85.7518   10.3438 H       1  UNL1        0.1551
     10 C          58.8747   89.5811    6.5298 C.3     1  UNL1        0.0515
     11 C          59.3883   88.4170    7.3243 C.ar    1  UNL1        0.0548
     12 C          60.3501   88.4893    8.4731 C.ar    1  UNL1        0.0502
     13 C          60.5866   87.0933    8.9682 C.ar    1  UNL1        0.1539
     14 N          59.7709   86.1582    8.1254 N.ar    1  UNL1       -0.1577
     15 N          59.0303   86.9763    7.1094 N.ar    1  UNL1       -0.2786
     16 H          58.4170   86.6287    6.4222 H       1  UNL1        0.1886
     17 C          64.4100   90.9187   13.2106 C.1     1  UNL1        0.1029
     18 N          65.1421   91.9731   13.9866 N.1     1  UNL1       -0.1907
     19 N          64.0379   88.1816   14.3810 N.pl3   1  UNL1       -0.3145
     20 H          64.0098   88.8623   15.0917 H       1  UNL1        0.1483
     21 C          64.6269   86.8305   14.6593 C.3     1  UNL1        0.1362
     22 C          63.8400   85.8142   15.4326 C.3     1  UNL1        0.2266
     23 O          62.5956   85.2208   14.8414 O.3     1  UNL1       -0.4720
     24 C          62.6634   83.9151   14.1063 C.ar    1  UNL1        0.1577
     25 C          62.7954   83.9015   12.6121 C.ar    1  UNL1        0.0401
     26 C          62.8632   82.5958   11.8770 C.ar    1  UNL1        0.0238
     27 C          62.7990   81.3036   12.6360 C.ar    1  UNL1        0.0991
     28 N          62.6671   81.3171   14.1301 N.ar    1  UNL1       -0.2391
     29 C          62.5993   82.6229   14.8652 C.ar    1  UNL1        0.1356
@<TRIPOS>BOND
     1    10    11    1
     2    11    12   ar
     3    12    13   ar
     4    13     8    1
     5     8     1    1
     6     1     2   ar
     7     2     3   ar
     8     3     4    1
     9     3     5   ar
    10     5    17    1
    11    17    18    3
    12     5     6   ar
    13     6    19    1
    14    19    21    1
    15    21    22    1
    16    22    23    1
    17    23    24    1
    18    24    25   ar
    19    25    26   ar
    20    26    27   ar
    21    27    28   ar
    22    28    29   ar
    23     6     7   ar
    24    13    14   ar
    25    14    15   ar
    26    15    11   ar
    27     7     1   ar
    28    29    24   ar
    29     8     9    1
    30    19    20    1
    31    15    16    1
@<TRIPOS>MOLECULE
*****
 29 31 0 0 0
SMALL
GASTEIGER

@<TRIPOS>ATOM
      1 C          63.3325   85.6778   12.6423 C.ar    1  UNL1        0.1344
      2 C          62.5246   85.2616   11.4490 C.ar    1  UNL1        0.0310
      3 C          61.8688   86.3001   10.5881 C.ar    1  UNL1       -0.0067
      4 C          61.0609   85.8840    9.3947 C.3     1  UNL1        0.0319
      5 C          62.0208   87.7549   10.9205 C.ar    1  UNL1        0.0959
      6 C          62.8287   88.1711   12.1139 C.ar    1  UNL1        0.1393
      7 N          63.4845   87.1326   12.9748 N.ar    1  UNL1       -0.2154
      8 N          63.9883   84.6392   13.5033 N.pl3   1  UNL1       -0.2819
      9 H          64.8734   84.8139   13.8975 H       1  UNL1        0.1551
     10 C          62.4141   79.6171   13.0787 C.3     1  UNL1        0.0515
     11 C          62.5721   81.0260   13.5685 C.ar    1  UNL1        0.0548
     12 C          63.4423   82.0812   12.9526 C.ar    1  UNL1        0.0502
     13 C          63.2957   83.3344   13.7637 C.ar    1  UNL1        0.1539
     14 N          62.3349   83.0538   14.8809 N.ar    1  UNL1       -0.1577
     15 N          61.8877   81.6271   14.7603 N.ar    1  UNL1       -0.2786
     16 H          61.2559   81.1662   15.3583 H       1  UNL1        0.1886
     17 C          61.3650   88.7935   10.0595 C.1     1  UNL1        0.1029
     18 N          60.7092   89.8320    9.1985 N.1     1  UNL1       -0.1907
     19 N          62.9807   89.6259   12.4463 N.pl3   1  UNL1       -0.3145
     20 H          63.0539   90.2909   11.7240 H       1  UNL1        0.1483
     21 C          63.0213   90.0676   13.8792 C.3     1  UNL1        0.1362
     22 C          64.3001   90.5842   14.4689 C.3     1  UNL1        0.2266
     23 O          65.2090   91.4496   13.6473 O.3     1  UNL1       -0.4720
     24 C          66.4687   91.9980   14.2494 C.ar    1  UNL1        0.1577
     25 C          66.4327   92.6495   15.6001 C.ar    1  UNL1        0.0401
     26 C          67.6924   93.1978   16.2021 C.ar    1  UNL1        0.0238
     27 C          68.9882   93.0947   15.4534 C.ar    1  UNL1        0.0991
     28 N          69.0241   92.4433   14.1028 N.ar    1  UNL1       -0.2391
     29 C          67.7644   91.8949   13.5007 C.ar    1  UNL1        0.1356
@<TRIPOS>BOND
     1    10    11    1
     2    11    12   ar
     3    12    13   ar
     4    13     8    1
     5     8     1    1
     6     1     2   ar
     7     2     3   ar
     8     3     4    1
     9     3     5   ar
    10     5    17    1
    11    17    18    3
    12     5     6   ar
    13     6    19    1
    14    19    21    1
    15    21    22    1
    16    22    23    1
    17    23    24    1
    18    24    25   ar
    19    25    26   ar
    20    26    27   ar
    21    27    28   ar
    22    28    29   ar
    23     6     7   ar
    24    13    14   ar
    25    14    15   ar
    26    15    11   ar
    27     7     1   ar
    28    29    24   ar
    29     8     9    1
    30    19    20    1
    31    15    16    1
