@<TRIPOS>MOLECULE
*****
 21 23 0 0 0
SMALL
GASTEIGER

@<TRIPOS>ATOM
      1 C          62.6776   88.8092   11.6104 C.2     1  UNL1        0.3689
      2 N          61.8617   89.4688   10.5383 N.2     1  UNL1       -0.0400
      3 C          61.0289   88.6353    9.6099 C.2     1  UNL1        0.1818
      4 C          60.2131   89.2948    8.5379 C.3     1  UNL1        0.1000
      5 C          59.3803   88.4613    7.6096 C.2     1  UNL1       -0.0174
      6 C          59.3634   86.9683    7.7534 C.2     1  UNL1       -0.0038
      7 C          60.1792   86.3088    8.8254 C.2     1  UNL1        0.0101
      8 C          61.0120   87.1423    9.7537 C.2     1  UNL1        0.1209
      9 C          61.8279   86.4828   10.8259 C.2     1  UNL1        0.3788
     10 O          61.8109   84.9898   10.9697 O.2     1  UNL1       -0.2376
     11 N          62.6606   87.3162   11.7542 N.am    1  UNL1        0.0364
     12 C          65.1760   91.3096   14.3953 C.ar    1  UNL1        0.1721
     13 C          64.7231   89.9431   14.8166 C.ar    1  UNL1        0.0403
     14 C          63.8904   89.1096   13.8883 C.ar    1  UNL1        0.0108
     15 C          63.5104   89.6427   12.5388 C.ar    1  UNL1        0.0896
     16 C          63.9632   91.0093   12.1175 C.ar    1  UNL1        0.0473
     17 C          64.7960   91.8427   13.0457 C.ar    1  UNL1        0.1680
     18 O          65.2489   93.2093   12.6244 O.3     1  UNL1       -0.5029
     19 H          65.0115   93.5423   11.7814 H       1  UNL1        0.2923
     20 C          67.5009   91.9904   15.3341 C.3     1  UNL1        0.2526
     21 O          66.0088   92.1431   15.3237 O.3     1  UNL1       -0.4684
@<TRIPOS>BOND
     1    20    21    1
     2    21    12    1
     3    12    13   ar
     4    13    14   ar
     5    14    15   ar
     6    15     1    1
     7     1     2    1
     8     2     3    2
     9     3     4    1
    10     4     5    1
    11     5     6    2
    12     6     7    1
    13     7     8    2
    14     8     9    1
    15     9    10    2
    16     9    11    1
    17    15    16   ar
    18    16    17   ar
    19    17    18    1
    20    17    12   ar
    21    11     1    2
    22     8     3    1
    23    18    19    1
@<TRIPOS>MOLECULE
*****
 21 23 0 0 0
SMALL
GASTEIGER

@<TRIPOS>ATOM
      1 C          62.0023   85.6428   10.4958 C.2     1  UNL1        0.3689
      2 N          61.8317   85.6377   11.9861 N.2     1  UNL1       -0.0400
      3 C          62.6154   84.6744   12.8274 C.2     1  UNL1        0.1818
      4 C          62.4449   84.6692   14.3176 C.3     1  UNL1        0.1000
      5 C          63.2286   83.7059   15.1589 C.2     1  UNL1       -0.0174
      6 C          64.1829   82.7477   14.5099 C.2     1  UNL1       -0.0038
      7 C          64.3534   82.7528   13.0197 C.2     1  UNL1        0.0101
      8 C          63.5697   83.7161   12.1784 C.2     1  UNL1        0.1209
      9 C          63.7403   83.7213   10.6881 C.2     1  UNL1        0.3788
     10 O          64.6946   82.7631   10.0391 O.2     1  UNL1       -0.2376
     11 N          62.9566   84.6846    9.8469 N.am    1  UNL1        0.0364
     12 C          59.6512   88.5329    7.9720 C.ar    1  UNL1        0.1721
     13 C          59.7233   87.0856    7.5847 C.ar    1  UNL1        0.0403
     14 C          60.5070   86.1222    8.4260 C.ar    1  UNL1        0.0108
     15 C          61.2186   86.6062    9.6545 C.ar    1  UNL1        0.0896
     16 C          61.1465   88.0536   10.0418 C.ar    1  UNL1        0.0473
     17 C          60.3628   89.0169    9.2005 C.ar    1  UNL1        0.1680
     18 O          60.2907   90.4643    9.5878 O.3     1  UNL1       -0.5029
     19 H          60.7352   90.7666   10.3552 H       1  UNL1        0.2923
     20 C          59.4628   90.0461    5.8684 C.3     1  UNL1        0.2526
     21 O          58.8675   89.4963    7.1307 O.3     1  UNL1       -0.4684
@<TRIPOS>BOND
     1    20    21    1
     2    21    12    1
     3    12    13   ar
     4    13    14   ar
     5    14    15   ar
     6    15     1    1
     7     1     2    1
     8     2     3    2
     9     3     4    1
    10     4     5    1
    11     5     6    2
    12     6     7    1
    13     7     8    2
    14     8     9    1
    15     9    10    2
    16     9    11    1
    17    15    16   ar
    18    16    17   ar
    19    17    18    1
    20    17    12   ar
    21    11     1    2
    22     8     3    1
    23    18    19    1
@<TRIPOS>MOLECULE
*****
 21 23 0 0 0
SMALL
GASTEIGER

@<TRIPOS>ATOM
      1 C          62.5236   86.0360   11.8199 C.2     1  UNL1        0.3689
      2 N          63.1563   87.1958   12.5302 N.2     1  UNL1       -0.0400
      3 C          63.0482   88.5770   11.9551 C.2     1  UNL1        0.1818
      4 C          63.6810   89.7368   12.6654 C.3     1  UNL1        0.1000
      5 C          63.5728   91.1179   12.0903 C.2     1  UNL1       -0.0174
      6 C          62.8319   91.3392   10.8050 C.2     1  UNL1       -0.0038
      7 C          62.1992   90.1795   10.0947 C.2     1  UNL1        0.0101
      8 C          62.3073   88.7983   10.6698 C.2     1  UNL1        0.1209
      9 C          61.6745   87.6385    9.9595 C.2     1  UNL1        0.3788
     10 O          60.9336   87.8598    8.6742 O.2     1  UNL1       -0.2376
     11 N          61.7827   86.2573   10.5346 N.am    1  UNL1        0.0364
     12 C          62.8480   81.8925   13.5451 C.ar    1  UNL1        0.1721
     13 C          62.8483   82.0879   12.0579 C.ar    1  UNL1        0.0403
     14 C          62.7402   83.4690   11.4828 C.ar    1  UNL1        0.0108
     15 C          62.6317   84.6548   12.3950 C.ar    1  UNL1        0.0896
     16 C          62.6314   84.4595   13.8822 C.ar    1  UNL1        0.0473
     17 C          62.7395   83.0783   14.4573 C.ar    1  UNL1        0.1680
     18 O          62.7391   82.8830   15.9445 O.3     1  UNL1       -0.5029
     19 H          62.6714   83.6238   16.5143 H       1  UNL1        0.2923
     20 C          62.3185   79.3524   13.4129 C.3     1  UNL1        0.2526
     21 O          62.9561   80.5113   14.1202 O.3     1  UNL1       -0.4684
@<TRIPOS>BOND
     1    20    21    1
     2    21    12    1
     3    12    13   ar
     4    13    14   ar
     5    14    15   ar
     6    15     1    1
     7     1     2    1
     8     2     3    2
     9     3     4    1
    10     4     5    1
    11     5     6    2
    12     6     7    1
    13     7     8    2
    14     8     9    1
    15     9    10    2
    16     9    11    1
    17    15    16   ar
    18    16    17   ar
    19    17    18    1
    20    17    12   ar
    21    11     1    2
    22     8     3    1
    23    18    19    1
@<TRIPOS>MOLECULE
*****
 21 23 0 0 0
SMALL
GASTEIGER

@<TRIPOS>ATOM
      1 C          61.9673   86.3160   11.1021 C.2     1  UNL1        0.3689
      2 N          61.9976   84.8183   11.0267 N.2     1  UNL1       -0.0400
      3 C          62.7614   84.0310   12.0499 C.2     1  UNL1        0.1818
      4 C          62.7917   82.5333   11.9745 C.3     1  UNL1        0.1000
      5 C          63.5555   81.7461   12.9977 C.2     1  UNL1       -0.0174
      6 C          64.2891   82.4567   14.0962 C.2     1  UNL1       -0.0038
      7 C          64.2588   83.9545   14.1716 C.2     1  UNL1        0.0101
      8 C          63.4950   84.7416   13.1485 C.2     1  UNL1        0.1209
      9 C          63.4647   86.2395   13.2238 C.2     1  UNL1        0.3788
     10 O          64.1983   86.9501   14.3224 O.2     1  UNL1       -0.2376
     11 N          62.7009   87.0266   12.2007 N.am    1  UNL1        0.0364
     12 C          59.6758   88.6776    8.0326 C.ar    1  UNL1        0.1721
     13 C          60.6475   89.3714    8.9405 C.ar    1  UNL1        0.0403
     14 C          61.4114   88.5843    9.9637 C.ar    1  UNL1        0.0108
     15 C          61.2035   87.1033   10.0789 C.ar    1  UNL1        0.0896
     16 C          60.2318   86.4094    9.1709 C.ar    1  UNL1        0.0473
     17 C          59.4680   87.1965    8.1478 C.ar    1  UNL1        0.1680
     18 O          58.4963   86.5027    7.2398 O.3     1  UNL1       -0.5029
     19 H          58.3664   85.5775    7.3118 H       1  UNL1        0.2923
     20 C          59.6328   90.0868    5.8503 C.3     1  UNL1        0.2526
     21 O          58.9120   89.4648    7.0093 O.3     1  UNL1       -0.4684
@<TRIPOS>BOND
     1    20    21    1
     2    21    12    1
     3    12    13   ar
     4    13    14   ar
     5    14    15   ar
     6    15     1    1
     7     1     2    1
     8     2     3    2
     9     3     4    1
    10     4     5    1
    11     5     6    2
    12     6     7    1
    13     7     8    2
    14     8     9    1
    15     9    10    2
    16     9    11    1
    17    15    16   ar
    18    16    17   ar
    19    17    18    1
    20    17    12   ar
    21    11     1    2
    22     8     3    1
    23    18    19    1
@<TRIPOS>MOLECULE
*****
 21 23 0 0 0
SMALL
GASTEIGER

@<TRIPOS>ATOM
      1 C          62.1354   85.7842   11.3702 C.2     1  UNL1        0.3689
      2 N          61.1919   85.7673   10.2042 N.2     1  UNL1       -0.0400
      3 C          60.7991   87.0530    9.5386 C.2     1  UNL1        0.1818
      4 C          59.8557   87.0361    8.3726 C.3     1  UNL1        0.1000
      5 C          59.4629   88.3217    7.7070 C.2     1  UNL1       -0.0174
      6 C          60.0136   89.6241    8.2075 C.2     1  UNL1       -0.0038
      7 C          60.9570   89.6409    9.3735 C.2     1  UNL1        0.0101
      8 C          61.3498   88.3554   10.0390 C.2     1  UNL1        0.1209
      9 C          62.2933   88.3722   11.2051 C.2     1  UNL1        0.3788
     10 O          62.8439   89.6746   11.7055 O.2     1  UNL1       -0.2376
     11 N          62.6860   87.0866   11.8706 N.am    1  UNL1        0.0364
     12 C          63.3137   81.9275   13.3671 C.ar    1  UNL1        0.1721
     13 C          63.3987   82.0561   11.8750 C.ar    1  UNL1        0.0403
     14 C          63.0059   83.3416   11.2094 C.ar    1  UNL1        0.0108
     15 C          62.5282   84.4986   12.0358 C.ar    1  UNL1        0.0896
     16 C          62.4432   84.3701   13.5279 C.ar    1  UNL1        0.0473
     17 C          62.8360   83.0846   14.1935 C.ar    1  UNL1        0.1680
     18 O          62.7511   82.9561   15.6856 O.3     1  UNL1       -0.5029
     19 H          62.4526   83.6788   16.2018 H       1  UNL1        0.2923
     20 C          62.8252   79.4344   13.9106 C.3     1  UNL1        0.2526
     21 O          63.7065   80.6419   14.0327 O.3     1  UNL1       -0.4684
@<TRIPOS>BOND
     1    20    21    1
     2    21    12    1
     3    12    13   ar
     4    13    14   ar
     5    14    15   ar
     6    15     1    1
     7     1     2    1
     8     2     3    2
     9     3     4    1
    10     4     5    1
    11     5     6    2
    12     6     7    1
    13     7     8    2
    14     8     9    1
    15     9    10    2
    16     9    11    1
    17    15    16   ar
    18    16    17   ar
    19    17    18    1
    20    17    12   ar
    21    11     1    2
    22     8     3    1
    23    18    19    1
@<TRIPOS>MOLECULE
*****
 21 23 0 0 0
SMALL
GASTEIGER

@<TRIPOS>ATOM
      1 C          63.0832   85.9011   12.4842 C.2     1  UNL1        0.3689
      2 N          62.5217   86.7190   11.3591 N.2     1  UNL1       -0.0400
      3 C          62.6470   88.2136   11.3831 C.2     1  UNL1        0.1818
      4 C          62.0855   89.0314   10.2580 C.3     1  UNL1        0.1000
      5 C          62.2108   90.5260   10.2821 C.2     1  UNL1       -0.0174
      6 C          62.8975   91.2027   11.4313 C.2     1  UNL1       -0.0038
      7 C          63.4589   90.3848   12.5563 C.2     1  UNL1        0.0101
      8 C          63.3337   88.8903   12.5323 C.2     1  UNL1        0.1209
      9 C          63.8951   88.0723   13.6574 C.2     1  UNL1        0.3788
     10 O          64.5818   88.7490   14.8065 O.2     1  UNL1       -0.2376
     11 N          63.7699   86.5778   13.6333 N.am    1  UNL1        0.0364
     12 C          62.7075   81.4174   12.4122 C.ar    1  UNL1        0.1721
     13 C          63.0766   82.1593   11.1618 C.ar    1  UNL1        0.0403
     14 C          63.2018   83.6538   11.1858 C.ar    1  UNL1        0.0108
     15 C          62.9579   84.4065   12.4602 C.ar    1  UNL1        0.0896
     16 C          62.5888   83.6646   13.7105 C.ar    1  UNL1        0.0473
     17 C          62.4636   82.1701   13.6865 C.ar    1  UNL1        0.1680
     18 O          62.0945   81.4282   14.9369 O.3     1  UNL1       -0.5029
     19 H          61.9421   81.8984   15.7329 H       1  UNL1        0.2923
     20 C          62.7581   79.1761   11.0992 C.3     1  UNL1        0.2526
     21 O          62.5822   79.9228   12.3882 O.3     1  UNL1       -0.4684
@<TRIPOS>BOND
     1    20    21    1
     2    21    12    1
     3    12    13   ar
     4    13    14   ar
     5    14    15   ar
     6    15     1    1
     7     1     2    1
     8     2     3    2
     9     3     4    1
    10     4     5    1
    11     5     6    2
    12     6     7    1
    13     7     8    2
    14     8     9    1
    15     9    10    2
    16     9    11    1
    17    15    16   ar
    18    16    17   ar
    19    17    18    1
    20    17    12   ar
    21    11     1    2
    22     8     3    1
    23    18    19    1
@<TRIPOS>MOLECULE
*****
 21 23 0 0 0
SMALL
GASTEIGER

@<TRIPOS>ATOM
      1 C          63.1040   86.3304   12.7970 C.2     1  UNL1        0.3689
      2 N          63.8383   87.2728   13.7039 N.2     1  UNL1       -0.0400
      3 C          63.8951   88.7359   13.3780 C.2     1  UNL1        0.1818
      4 C          64.6294   89.6783   14.2850 C.3     1  UNL1        0.1000
      5 C          64.6861   91.1414   13.9590 C.2     1  UNL1       -0.0174
      6 C          64.0086   91.6620   12.7262 C.2     1  UNL1       -0.0038
      7 C          63.2743   90.7195   11.8193 C.2     1  UNL1        0.0101
      8 C          63.2175   89.2565   12.1452 C.2     1  UNL1        0.1209
      9 C          62.4832   88.3140   11.2382 C.2     1  UNL1        0.3788
     10 O          61.8056   88.8346   10.0054 O.2     1  UNL1       -0.2376
     11 N          62.4264   86.8510   11.5641 N.am    1  UNL1        0.0364
     12 C          62.9336   81.9411   13.7745 C.ar    1  UNL1        0.1721
     13 C          62.8709   82.9577   14.8757 C.ar    1  UNL1        0.0403
     14 C          62.9277   84.4208   14.5499 C.ar    1  UNL1        0.0108
     15 C          63.0472   84.8672   13.1229 C.ar    1  UNL1        0.0896
     16 C          63.1098   83.8506   12.0217 C.ar    1  UNL1        0.0473
     17 C          63.0530   82.3876   12.3475 C.ar    1  UNL1        0.1680
     18 O          63.1157   81.3710   11.2463 O.3     1  UNL1       -0.5029
     19 H          63.1903   81.6499   10.3549 H       1  UNL1        0.2923
     20 C          61.6669   79.6732   13.7283 C.3     1  UNL1        0.2526
     21 O          62.8768   80.4780   14.1004 O.3     1  UNL1       -0.4684
@<TRIPOS>BOND
     1    20    21    1
     2    21    12    1
     3    12    13   ar
     4    13    14   ar
     5    14    15   ar
     6    15     1    1
     7     1     2    1
     8     2     3    2
     9     3     4    1
    10     4     5    1
    11     5     6    2
    12     6     7    1
    13     7     8    2
    14     8     9    1
    15     9    10    2
    16     9    11    1
    17    15    16   ar
    18    16    17   ar
    19    17    18    1
    20    17    12   ar
    21    11     1    2
    22     8     3    1
    23    18    19    1
@<TRIPOS>MOLECULE
*****
 21 23 0 0 0
SMALL
GASTEIGER

@<TRIPOS>ATOM
      1 C          63.3625   85.3223   12.8010 C.2     1  UNL1        0.3689
      2 N          62.5876   84.4788   13.7695 N.2     1  UNL1       -0.0400
      3 C          62.4574   83.0020   13.5409 C.2     1  UNL1        0.1818
      4 C          61.6825   82.1586   14.5094 C.3     1  UNL1        0.1000
      5 C          61.5524   80.6819   14.2807 C.2     1  UNL1       -0.0174
      6 C          62.1972   80.0486   13.0835 C.2     1  UNL1       -0.0038
      7 C          62.9721   80.8921   12.1150 C.2     1  UNL1        0.0101
      8 C          63.1022   82.3688   12.3437 C.2     1  UNL1        0.1209
      9 C          63.8772   83.2123   11.3752 C.2     1  UNL1        0.3788
     10 O          64.5220   82.5791   10.1780 O.2     1  UNL1       -0.2376
     11 N          64.0073   84.6890   11.6038 N.am    1  UNL1        0.0364
     12 C          63.7528   89.7526   13.4868 C.ar    1  UNL1        0.1721
     13 C          64.3164   88.7864   14.4862 C.ar    1  UNL1        0.0403
     14 C          64.1863   87.3097   14.2576 C.ar    1  UNL1        0.0108
     15 C          63.4926   86.7991   13.0296 C.ar    1  UNL1        0.0896
     16 C          62.9289   87.7653   12.0302 C.ar    1  UNL1        0.0473
     17 C          63.0590   89.2420   12.2588 C.ar    1  UNL1        0.1680
     18 O          62.4954   90.2082   11.2594 O.3     1  UNL1       -0.5029
     19 H          62.0620   89.8892   10.4923 H       1  UNL1        0.2923
     20 C          64.9552   92.0059   13.0102 C.3     1  UNL1        0.2526
     21 O          63.8829   91.2294   13.7154 O.3     1  UNL1       -0.4684
@<TRIPOS>BOND
     1    20    21    1
     2    21    12    1
     3    12    13   ar
     4    13    14   ar
     5    14    15   ar
     6    15     1    1
     7     1     2    1
     8     2     3    2
     9     3     4    1
    10     4     5    1
    11     5     6    2
    12     6     7    1
    13     7     8    2
    14     8     9    1
    15     9    10    2
    16     9    11    1
    17    15    16   ar
    18    16    17   ar
    19    17    18    1
    20    17    12   ar
    21    11     1    2
    22     8     3    1
    23    18    19    1
@<TRIPOS>MOLECULE
*****
 21 23 0 0 0
SMALL
GASTEIGER

@<TRIPOS>ATOM
      1 C          63.4495   85.9308   14.9975 C.2     1  UNL1        0.3689
      2 N          63.8928   87.1110   14.1849 N.2     1  UNL1       -0.0400
      3 C          63.9293   88.4769   14.8041 C.2     1  UNL1        0.1818
      4 C          64.3726   89.6571   13.9914 C.3     1  UNL1        0.1000
      5 C          64.4091   91.0228   14.6106 C.2     1  UNL1       -0.0174
      6 C          64.0023   91.2083   16.0424 C.2     1  UNL1       -0.0038
      7 C          63.5590   90.0281   16.8550 C.2     1  UNL1        0.0101
      8 C          63.5225   88.6623   16.2359 C.2     1  UNL1        0.1209
      9 C          63.0791   87.4820   17.0485 C.2     1  UNL1        0.3788
     10 O          62.6723   87.6675   18.4803 O.2     1  UNL1       -0.2376
     11 N          63.0427   86.1163   16.4293 N.am    1  UNL1        0.0364
     12 C          63.3401   81.8335   13.1401 C.ar    1  UNL1        0.1721
     13 C          62.4939   82.1353   14.3412 C.ar    1  UNL1        0.0403
     14 C          62.5304   83.5010   14.9604 C.ar    1  UNL1        0.0108
     15 C          63.4130   84.5650   14.3784 C.ar    1  UNL1        0.0896
     16 C          64.2592   84.2632   13.1772 C.ar    1  UNL1        0.0473
     17 C          64.2228   82.8975   12.5580 C.ar    1  UNL1        0.1680
     18 O          65.0690   82.5957   11.3568 O.3     1  UNL1       -0.5029
     19 H          65.6204   83.2604   10.9932 H       1  UNL1        0.2923
     20 C          62.3089   79.4529   13.0011 C.3     1  UNL1        0.2526
     21 O          63.3036   80.4677   12.5209 O.3     1  UNL1       -0.4684
@<TRIPOS>BOND
     1    20    21    1
     2    21    12    1
     3    12    13   ar
     4    13    14   ar
     5    14    15   ar
     6    15     1    1
     7     1     2    1
     8     2     3    2
     9     3     4    1
    10     4     5    1
    11     5     6    2
    12     6     7    1
    13     7     8    2
    14     8     9    1
    15     9    10    2
    16     9    11    1
    17    15    16   ar
    18    16    17   ar
    19    17    18    1
    20    17    12   ar
    21    11     1    2
    22     8     3    1
    23    18    19    1
