@<TRIPOS>MOLECULE
*****
 11 11 0 0 0
SMALL
GASTEIGER

@<TRIPOS>ATOM
      1 C          62.5302   86.5836   18.1045 C.3     1  UNL1        0.1292
      2 C          63.1330   87.2143   16.8842 C.2     1  UNL1        0.2926
      3 N          63.1206   88.7059   16.7271 N.2     1  UNL1       -0.0684
      4 CA         63.7233   89.3366   15.5069 C.3     1  UNL1        0.2545
      5 C          64.3384   88.4756   14.4437 C.3     1  UNL1        0.1097
      6 C          64.3507   86.9839   14.6008 C.3     1  UNL1        0.2037
      7 N          63.7480   86.3533   15.8211 N.pl3   1  UNL1       -0.2226
      8 H          63.7561   85.3742   15.9242 H       1  UNL1        0.2919
      9 C          63.7110   90.8283   15.3498 C.2     1  UNL1        0.0990
     10 O          63.4856   91.7065   16.5448 O.co2   1  UNL1       -0.5448
     11 OXT        63.9239   91.4419   13.9977 O.co2   1  UNL1       -0.5448
@<TRIPOS>UNITY_ATOM_ATTR
10 1
charge -1
@<TRIPOS>BOND
     1     1     2    1
     2     2     3    2
     3     3     4    1
     4     4     9    1
     5     9    10   ar
     6     9    11   ar
     7     4     5    1
     8     5     6    1
     9     6     7    1
    10     7     2    1
    11     7     8    1
@<TRIPOS>MOLECULE
*****
 11 11 0 0 0
SMALL
GASTEIGER

@<TRIPOS>ATOM
      1 C          60.8140   80.7503   14.2018 C.3     1  UNL1        0.1292
      2 C          61.9200   81.7315   13.9490 C.2     1  UNL1        0.2926
      3 N          62.3235   82.0610   12.5424 N.2     1  UNL1       -0.0684
      4 CA         63.4295   83.0422   12.2896 C.3     1  UNL1        0.2545
      5 C          64.1321   83.6939   13.4435 C.3     1  UNL1        0.1097
      6 C          63.7287   83.3645   14.8501 C.3     1  UNL1        0.2037
      7 N          62.6227   82.3833   15.1029 N.pl3   1  UNL1       -0.2226
      8 H          62.3579   82.1671   16.0261 H       1  UNL1        0.2919
      9 C          63.8329   83.3716   10.8829 C.2     1  UNL1        0.0990
     10 O          63.1958   84.5281   10.1713 O.co2   1  UNL1       -0.5448
     11 OXT        64.8735   82.5444   10.1879 O.co2   1  UNL1       -0.5448
@<TRIPOS>UNITY_ATOM_ATTR
10 1
charge -1
@<TRIPOS>BOND
     1     1     2    1
     2     2     3    2
     3     3     4    1
     4     4     9    1
     5     9    10   ar
     6     9    11   ar
     7     4     5    1
     8     5     6    1
     9     6     7    1
    10     7     2    1
    11     7     8    1
@<TRIPOS>MOLECULE
*****
 11 11 0 0 0
SMALL
GASTEIGER

@<TRIPOS>ATOM
      1 C          68.7798   92.2939    8.7599 C.3     1  UNL1        0.1292
      2 C          67.9521   93.2570    9.5583 C.2     1  UNL1        0.2926
      3 N          67.3255   92.8172   10.8482 N.2     1  UNL1       -0.0684
      4 CA         66.4978   93.7803   11.6466 C.3     1  UNL1        0.2545
      5 C          66.2967   95.1831   11.1551 C.3     1  UNL1        0.1097
      6 C          66.9234   95.6229    9.8652 C.3     1  UNL1        0.2037
      7 N          67.7511   94.6598    9.0668 N.pl3   1  UNL1       -0.2226
      8 H          68.1624   94.9485    8.2201 H       1  UNL1        0.2919
      9 C          65.8711   93.3405   12.9365 C.2     1  UNL1        0.0990
     10 O          66.2822   93.9838   14.2277 O.co2   1  UNL1       -0.5448
     11 OXT        64.8335   92.2573   12.9352 O.co2   1  UNL1       -0.5448
@<TRIPOS>UNITY_ATOM_ATTR
10 1
charge -1
@<TRIPOS>BOND
     1     1     2    1
     2     2     3    2
     3     3     4    1
     4     4     9    1
     5     9    10   ar
     6     9    11   ar
     7     4     5    1
     8     5     6    1
     9     6     7    1
    10     7     2    1
    11     7     8    1
@<TRIPOS>MOLECULE
*****
 11 11 0 0 0
SMALL
GASTEIGER

@<TRIPOS>ATOM
      1 C          65.3882   93.0760   10.7798 C.3     1  UNL1        0.1292
      2 C          65.7544   92.5105   12.1200 C.2     1  UNL1        0.2926
      3 N          64.6861   91.9676   13.0222 N.2     1  UNL1       -0.0684
      4 CA         65.0523   91.4020   14.3623 C.3     1  UNL1        0.2545
      5 C          66.4867   91.3793   14.8003 C.3     1  UNL1        0.1097
      6 C          67.5550   91.9222   13.8980 C.3     1  UNL1        0.2037
      7 N          67.1888   92.4878   12.5579 N.pl3   1  UNL1       -0.2226
      8 H          67.8899   92.8441   11.9657 H       1  UNL1        0.2919
      9 C          63.9840   90.8590   15.2646 C.2     1  UNL1        0.0990
     10 O          63.3614   89.5261   14.9722 O.co2   1  UNL1       -0.5448
     11 OXT        63.5382   91.6492   16.4591 O.co2   1  UNL1       -0.5448
@<TRIPOS>UNITY_ATOM_ATTR
10 1
charge -1
@<TRIPOS>BOND
     1     1     2    1
     2     2     3    2
     3     3     4    1
     4     4     9    1
     5     9    10   ar
     6     9    11   ar
     7     4     5    1
     8     5     6    1
     9     6     7    1
    10     7     2    1
    11     7     8    1
@<TRIPOS>MOLECULE
*****
 11 11 0 0 0
SMALL
GASTEIGER

@<TRIPOS>ATOM
      1 C          62.4669   84.3622   15.7591 C.3     1  UNL1        0.1292
      2 C          62.5537   83.3884   14.6215 C.2     1  UNL1        0.2926
      3 N          63.0892   83.8331   13.2928 N.2     1  UNL1       -0.0684
      4 CA         63.1760   82.8593   12.1551 C.3     1  UNL1        0.2545
      5 C          62.7275   81.4408   12.3462 C.3     1  UNL1        0.1097
      6 C          62.1920   80.9961   13.6749 C.3     1  UNL1        0.2037
      7 N          62.1052   81.9699   14.8125 N.pl3   1  UNL1       -0.2226
      8 H          61.7537   81.6779   15.6846 H       1  UNL1        0.2919
      9 C          63.7115   83.3041   10.8264 C.2     1  UNL1        0.0990
     10 O          63.1206   84.5011   10.1423 O.co2   1  UNL1       -0.5448
     11 OXT        64.8378   82.5518   10.1818 O.co2   1  UNL1       -0.5448
@<TRIPOS>UNITY_ATOM_ATTR
10 1
charge -1
@<TRIPOS>BOND
     1     1     2    1
     2     2     3    2
     3     3     4    1
     4     4     9    1
     5     9    10   ar
     6     9    11   ar
     7     4     5    1
     8     5     6    1
     9     6     7    1
    10     7     2    1
    11     7     8    1
@<TRIPOS>MOLECULE
*****
 11 11 0 0 0
SMALL
GASTEIGER

@<TRIPOS>ATOM
      1 C          62.0021   81.8631   14.3149 C.3     1  UNL1        0.1292
      2 C          62.8777   83.0575   14.5530 C.2     1  UNL1        0.2926
      3 N          62.4560   84.1135   15.5312 N.2     1  UNL1       -0.0684
      4 CA         63.3316   85.3080   15.7692 C.3     1  UNL1        0.2545
      5 C          64.6288   85.4464   15.0291 C.3     1  UNL1        0.1097
      6 C          65.0505   84.3904   14.0508 C.3     1  UNL1        0.2037
      7 N          64.1750   83.1959   13.8128 N.pl3   1  UNL1       -0.2226
      8 H          64.4518   82.5028   13.1707 H       1  UNL1        0.2919
      9 C          62.9098   86.3640   16.7475 C.2     1  UNL1        0.0990
     10 O          63.2644   87.8003   16.4999 O.co2   1  UNL1       -0.5448
     11 OXT        62.1334   85.9837   17.9733 O.co2   1  UNL1       -0.5448
@<TRIPOS>UNITY_ATOM_ATTR
10 1
charge -1
@<TRIPOS>BOND
     1     1     2    1
     2     2     3    2
     3     3     4    1
     4     4     9    1
     5     9    10   ar
     6     9    11   ar
     7     4     5    1
     8     5     6    1
     9     6     7    1
    10     7     2    1
    11     7     8    1
@<TRIPOS>MOLECULE
*****
 11 11 0 0 0
SMALL
GASTEIGER

@<TRIPOS>ATOM
      1 C          68.6179   92.3446    8.8124 C.3     1  UNL1        0.1292
      2 C          67.7158   92.6777    9.9637 C.2     1  UNL1        0.2926
      3 N          68.0710   92.2271   11.3496 N.2     1  UNL1       -0.0684
      4 CA         67.1689   92.5601   12.5008 C.3     1  UNL1        0.2545
      5 C          65.9117   93.3437   12.2662 C.3     1  UNL1        0.1097
      6 C          65.5565   93.7943   10.8803 C.3     1  UNL1        0.2037
      7 N          66.4585   93.4613    9.7290 N.pl3   1  UNL1       -0.2226
      8 H          66.2254   93.7571    8.8194 H       1  UNL1        0.2919
      9 C          67.5242   92.1094   13.8868 C.2     1  UNL1        0.0990
     10 O          66.6026   91.1944   14.6372 O.co2   1  UNL1       -0.5448
     11 OXT        68.8012   92.5738   14.5222 O.co2   1  UNL1       -0.5448
@<TRIPOS>UNITY_ATOM_ATTR
10 1
charge -1
@<TRIPOS>BOND
     1     1     2    1
     2     2     3    2
     3     3     4    1
     4     4     9    1
     5     9    10   ar
     6     9    11   ar
     7     4     5    1
     8     5     6    1
     9     6     7    1
    10     7     2    1
    11     7     8    1
@<TRIPOS>MOLECULE
*****
 11 11 0 0 0
SMALL
GASTEIGER

@<TRIPOS>ATOM
      1 C          63.8361   85.7867   16.0875 C.3     1  UNL1        0.1292
      2 C          63.4437   84.9425   14.9114 C.2     1  UNL1        0.2926
      3 N          63.0340   83.5143   15.1167 N.2     1  UNL1       -0.0684
      4 CA         62.6416   82.6701   13.9405 C.3     1  UNL1        0.2545
      5 C          62.6588   83.2541   12.5591 C.3     1  UNL1        0.1097
      6 C          63.0685   84.6824   12.3537 C.3     1  UNL1        0.2037
      7 N          63.4609   85.5266   13.5299 N.pl3   1  UNL1       -0.2226
      8 H          63.7298   86.4640   13.3951 H       1  UNL1        0.2919
      9 C          62.2318   81.2418   14.1459 C.2     1  UNL1        0.0990
     10 O          60.7784   80.8710   14.1456 O.co2   1  UNL1       -0.5448
     11 OXT        63.2756   80.1843   14.3517 O.co2   1  UNL1       -0.5448
@<TRIPOS>UNITY_ATOM_ATTR
10 1
charge -1
@<TRIPOS>BOND
     1     1     2    1
     2     2     3    2
     3     3     4    1
     4     4     9    1
     5     9    10   ar
     6     9    11   ar
     7     4     5    1
     8     5     6    1
     9     6     7    1
    10     7     2    1
    11     7     8    1
@<TRIPOS>MOLECULE
*****
 11 11 0 0 0
SMALL
GASTEIGER

@<TRIPOS>ATOM
      1 C          67.0050   95.4964    9.7618 C.3     1  UNL1        0.1292
      2 C          66.4039   94.4187   10.6147 C.2     1  UNL1        0.2926
      3 N          66.7941   94.2994   12.0581 N.2     1  UNL1       -0.0684
      4 CA         66.1930   93.2218   12.9109 C.3     1  UNL1        0.2545
      5 C          65.2016   92.2634   12.3203 C.3     1  UNL1        0.1097
      6 C          64.8114   92.3828   10.8769 C.3     1  UNL1        0.2037
      7 N          65.4126   93.4604   10.0241 N.pl3   1  UNL1       -0.2226
      8 H          65.1564   93.5387    9.0767 H       1  UNL1        0.2919
      9 C          66.5833   93.1025   14.3544 C.2     1  UNL1        0.0990
     10 O          67.9929   93.3933   14.7767 O.co2   1  UNL1       -0.5448
     11 OXT        65.5638   92.6923   15.3755 O.co2   1  UNL1       -0.5448
@<TRIPOS>UNITY_ATOM_ATTR
10 1
charge -1
@<TRIPOS>BOND
     1     1     2    1
     2     2     3    2
     3     3     4    1
     4     4     9    1
     5     9    10   ar
     6     9    11   ar
     7     4     5    1
     8     5     6    1
     9     6     7    1
    10     7     2    1
    11     7     8    1
