@<TRIPOS>MOLECULE
*****
 25 27 0 0 0
SMALL
GASTEIGER

@<TRIPOS>ATOM
      1 C          63.3381   90.0219   12.5581 C.ar    1  UNL1        0.0576
      2 C          63.0455   89.4621   13.9186 C.ar    1  UNL1        0.0161
      3 C          63.6542   90.0928   15.1358 C.ar    1  UNL1        0.0609
      4 CL         63.3616   89.5330   16.4964 Cl      1  UNL1       -0.0821
      5 C          64.5554   91.2833   14.9926 C.ar    1  UNL1        0.0489
      6 C          64.8480   91.8431   13.6321 C.ar    1  UNL1        0.1464
      7 C          64.2394   91.2124   12.4149 C.ar    1  UNL1        0.0421
      8 O          62.7127   90.1362   10.0390 O.2     1  UNL1       -0.2698
      9 C          62.7295   89.3912   11.3408 C.2     1  UNL1        0.2507
     10 N          62.1376   88.0155   11.4252 N.am    1  UNL1       -0.2657
     11 H          62.1486   87.5265   12.2796 H       1  UNL1        0.1566
     12 C          61.5290   87.3848   10.2079 C.ar    1  UNL1        0.1367
     13 C          60.1087   87.6912    9.8351 C.ar    1  UNL1        0.0346
     14 C          59.5002   87.0605    8.6178 C.ar    1  UNL1        0.0068
     15 C          60.3118   86.1235    7.7733 C.ar    1  UNL1        0.0498
     16 C          61.7321   85.8171    8.1461 C.ar    1  UNL1        0.2234
     17 F          62.5437   84.8801    7.3016 F       1  UNL1       -0.1832
     18 N          62.3406   86.4478    9.3634 N.ar    1  UNL1       -0.2029
     19 O          65.7493   93.0335   13.4889 O.3     1  UNL1       -0.4503
     20 C          66.3859   93.3373   12.1651 C.ar    1  UNL1        0.1835
     21 C          67.3258   92.3490   11.5405 C.ar    1  UNL1        0.1396
     22 N          67.9624   92.6528   10.2167 N.ar    1  UNL1       -0.2192
     23 C          67.6593   93.9448    9.5176 C.ar    1  UNL1        0.1991
     24 N          66.7195   94.9330   10.1421 N.ar    1  UNL1       -0.2192
     25 C          66.0828   94.6293   11.4660 C.ar    1  UNL1        0.1396
@<TRIPOS>BOND
     1     8     9    2
     2     9    10   am
     3    10    12    1
     4    12    13   ar
     5    13    14   ar
     6    14    15   ar
     7    15    16   ar
     8    16    17    1
     9    16    18   ar
    10     9     1    1
    11     1     2   ar
    12     2     3   ar
    13     3     4    1
    14     3     5   ar
    15     5     6   ar
    16     6    19    1
    17    19    20    1
    18    20    21   ar
    19    21    22   ar
    20    22    23   ar
    21    23    24   ar
    22    24    25   ar
    23     6     7   ar
    24    18    12   ar
    25     7     1   ar
    26    25    20   ar
    27    10    11    1
@<TRIPOS>MOLECULE
*****
 25 27 0 0 0
SMALL
GASTEIGER

@<TRIPOS>ATOM
      1 C          63.6896   88.2240   13.2376 C.ar    1  UNL1        0.0576
      2 C          63.0711   88.7296   11.9681 C.ar    1  UNL1        0.0161
      3 C          62.9706   90.2053   11.7187 C.ar    1  UNL1        0.0609
      4 CL         62.3520   90.7110   10.4491 Cl      1  UNL1       -0.0821
      5 C          63.4886   91.1753   12.7388 C.ar    1  UNL1        0.0489
      6 C          64.1071   90.6697   14.0084 C.ar    1  UNL1        0.1464
      7 C          64.2076   89.1940   14.2577 C.ar    1  UNL1        0.0421
      8 O          64.5794   86.2372   14.6558 O.2     1  UNL1       -0.2698
      9 C          63.7902   86.7482   13.4870 C.2     1  UNL1        0.2507
     10 N          63.1015   85.7836   12.5677 N.am    1  UNL1       -0.2657
     11 H          62.5835   86.1190   11.8007 H       1  UNL1        0.1566
     12 C          63.2020   84.3078   12.8172 C.ar    1  UNL1        0.1367
     13 C          64.3463   83.5263   12.2428 C.ar    1  UNL1        0.0346
     14 C          64.4468   82.0507   12.4922 C.ar    1  UNL1        0.0068
     15 C          63.4031   81.3565   13.3161 C.ar    1  UNL1        0.0498
     16 C          62.2588   82.1380   13.8905 C.ar    1  UNL1        0.2234
     17 F          61.2151   81.4438   14.7143 F       1  UNL1       -0.1832
     18 N          62.1583   83.6136   13.6410 N.ar    1  UNL1       -0.2029
     19 O          64.6251   91.6397   15.0285 O.3     1  UNL1       -0.4503
     20 C          66.0684   92.0475   15.0107 C.ar    1  UNL1        0.1835
     21 C          66.9083   91.7806   13.7968 C.ar    1  UNL1        0.1396
     22 N          68.3517   92.1883   13.7790 N.ar    1  UNL1       -0.2192
     23 C          68.9553   92.8630   14.9750 C.ar    1  UNL1        0.1991
     24 N          68.1155   93.1298   16.1889 N.ar    1  UNL1       -0.2192
     25 C          66.6720   92.7221   16.2068 C.ar    1  UNL1        0.1396
@<TRIPOS>BOND
     1     8     9    2
     2     9    10   am
     3    10    12    1
     4    12    13   ar
     5    13    14   ar
     6    14    15   ar
     7    15    16   ar
     8    16    17    1
     9    16    18   ar
    10     9     1    1
    11     1     2   ar
    12     2     3   ar
    13     3     4    1
    14     3     5   ar
    15     5     6   ar
    16     6    19    1
    17    19    20    1
    18    20    21   ar
    19    21    22   ar
    20    22    23   ar
    21    23    24   ar
    22    24    25   ar
    23     6     7   ar
    24    18    12   ar
    25     7     1   ar
    26    25    20   ar
    27    10    11    1
@<TRIPOS>MOLECULE
*****
 25 27 0 0 0
SMALL
GASTEIGER

@<TRIPOS>ATOM
      1 C          63.5507   88.4063   13.0414 C.ar    1  UNL1        0.0576
      2 C          63.0787   88.9301   11.7174 C.ar    1  UNL1        0.0161
      3 C          63.1231   90.4025   11.4345 C.ar    1  UNL1        0.0609
      4 CL         62.6511   90.9264   10.1105 Cl      1  UNL1       -0.0821
      5 C          63.6394   91.3510   12.4755 C.ar    1  UNL1        0.0489
      6 C          64.1114   90.8272   13.7994 C.ar    1  UNL1        0.1464
      7 C          64.0671   89.3548   14.0823 C.ar    1  UNL1        0.0421
      8 O          64.2323   86.3763   14.5127 O.2     1  UNL1       -0.2698
      9 C          63.5064   86.9338   13.3243 C.2     1  UNL1        0.2507
     10 N          62.7361   86.0190   12.4190 N.am    1  UNL1       -0.2657
     11 H          62.2596   86.3849   11.6391 H       1  UNL1        0.1566
     12 C          62.6918   84.5465   12.7020 C.ar    1  UNL1        0.1367
     13 C          62.4473   84.0583   14.0991 C.ar    1  UNL1        0.0346
     14 C          62.4029   82.5860   14.3820 C.ar    1  UNL1        0.0068
     15 C          62.6031   81.6018   13.2679 C.ar    1  UNL1        0.0498
     16 C          62.8476   82.0900   11.8708 C.ar    1  UNL1        0.2234
     17 F          63.0477   81.1058   10.7566 F       1  UNL1       -0.1832
     18 N          62.8919   83.5623   11.5879 N.ar    1  UNL1       -0.2029
     19 O          64.6278   91.7758   14.8404 O.3     1  UNL1       -0.4503
     20 C          66.0886   92.1128   14.8894 C.ar    1  UNL1        0.1835
     21 C          66.6832   92.6919   16.1389 C.ar    1  UNL1        0.1396
     22 N          68.1440   93.0289   16.1879 N.ar    1  UNL1       -0.2192
     23 C          69.0102   92.7870   14.9874 C.ar    1  UNL1        0.1991
     24 N          68.4157   92.2079   13.7380 N.ar    1  UNL1       -0.2192
     25 C          66.9548   91.8708   13.6889 C.ar    1  UNL1        0.1396
@<TRIPOS>BOND
     1     8     9    2
     2     9    10   am
     3    10    12    1
     4    12    13   ar
     5    13    14   ar
     6    14    15   ar
     7    15    16   ar
     8    16    17    1
     9    16    18   ar
    10     9     1    1
    11     1     2   ar
    12     2     3   ar
    13     3     4    1
    14     3     5   ar
    15     5     6   ar
    16     6    19    1
    17    19    20    1
    18    20    21   ar
    19    21    22   ar
    20    22    23   ar
    21    23    24   ar
    22    24    25   ar
    23     6     7   ar
    24    18    12   ar
    25     7     1   ar
    26    25    20   ar
    27    10    11    1
@<TRIPOS>MOLECULE
*****
 25 27 0 0 0
SMALL
GASTEIGER

@<TRIPOS>ATOM
      1 C          61.6226   88.0806   10.9737 C.ar    1  UNL1        0.0576
      2 C          60.3095   88.7041   11.3439 C.ar    1  UNL1        0.0161
      3 C          60.1498   90.1950   11.3054 C.ar    1  UNL1        0.0609
      4 CL         58.8367   90.8185   11.6756 Cl      1  UNL1       -0.0821
      5 C          61.3033   91.0625   10.8967 C.ar    1  UNL1        0.0489
      6 C          62.6163   90.4391   10.5265 C.ar    1  UNL1        0.1464
      7 C          62.7760   88.9481   10.5650 C.ar    1  UNL1        0.0421
      8 O          61.0808   85.7338    9.9996 O.2     1  UNL1       -0.2698
      9 C          61.7823   86.5896   11.0122 C.2     1  UNL1        0.2507
     10 N          62.6435   85.9545   12.0633 N.am    1  UNL1       -0.2657
     11 H          63.1040   86.5162   12.7280 H       1  UNL1        0.1566
     12 C          62.8032   84.4634   12.1018 C.ar    1  UNL1        0.1367
     13 C          63.4275   83.7458   10.9420 C.ar    1  UNL1        0.0346
     14 C          63.5872   82.2549   10.9805 C.ar    1  UNL1        0.0068
     15 C          63.1226   81.4815   12.1789 C.ar    1  UNL1        0.0498
     16 C          62.4984   82.1991   13.3388 C.ar    1  UNL1        0.2234
     17 F          62.0339   81.4258   14.5372 F       1  UNL1       -0.1832
     18 N          62.3387   83.6901   13.3002 N.ar    1  UNL1       -0.2029
     19 O          63.7698   91.3066   10.1178 O.3     1  UNL1       -0.4503
     20 C          64.6129   91.9748   11.1630 C.ar    1  UNL1        0.1835
     21 C          64.4435   91.6113   12.6085 C.ar    1  UNL1        0.1396
     22 N          65.2867   92.2795   13.6537 N.ar    1  UNL1       -0.2192
     23 C          66.2992   93.3113   13.2536 C.ar    1  UNL1        0.1991
     24 N          66.4687   93.6748   11.8082 N.ar    1  UNL1       -0.2192
     25 C          65.6255   93.0066   10.7629 C.ar    1  UNL1        0.1396
@<TRIPOS>BOND
     1     8     9    2
     2     9    10   am
     3    10    12    1
     4    12    13   ar
     5    13    14   ar
     6    14    15   ar
     7    15    16   ar
     8    16    17    1
     9    16    18   ar
    10     9     1    1
    11     1     2   ar
    12     2     3   ar
    13     3     4    1
    14     3     5   ar
    15     5     6   ar
    16     6    19    1
    17    19    20    1
    18    20    21   ar
    19    21    22   ar
    20    22    23   ar
    21    23    24   ar
    22    24    25   ar
    23     6     7   ar
    24    18    12   ar
    25     7     1   ar
    26    25    20   ar
    27    10    11    1
@<TRIPOS>MOLECULE
*****
 25 27 0 0 0
SMALL
GASTEIGER

@<TRIPOS>ATOM
      1 C          63.6732   86.5973   15.1588 C.ar    1  UNL1        0.0576
      2 C          63.2888   86.3189   16.5817 C.ar    1  UNL1        0.0161
      3 C          63.0237   87.4561   17.5232 C.ar    1  UNL1        0.0609
      4 CL         62.6392   87.1778   18.9461 Cl      1  UNL1       -0.0821
      5 C          63.1430   88.8717   17.0417 C.ar    1  UNL1        0.0489
      6 C          63.5275   89.1501   15.6188 C.ar    1  UNL1        0.1464
      7 C          63.7926   88.0129   14.6774 C.ar    1  UNL1        0.0421
      8 O          65.2820   84.7933   14.2060 O.2     1  UNL1       -0.2698
      9 C          63.9383   85.4600   14.2173 C.2     1  UNL1        0.2507
     10 N          62.8598   84.9895   13.2871 N.am    1  UNL1       -0.2657
     11 H          61.9779   85.4270   13.2945 H       1  UNL1        0.1566
     12 C          63.1249   83.8522   12.3455 C.ar    1  UNL1        0.1367
     13 C          63.7667   84.1138   11.0153 C.ar    1  UNL1        0.0346
     14 C          64.0318   82.9766   10.0738 C.ar    1  UNL1        0.0068
     15 C          63.6551   81.5777   10.4626 C.ar    1  UNL1        0.0498
     16 C          63.0133   81.3160   11.7929 C.ar    1  UNL1        0.2234
     17 F          62.6366   79.9171   12.1817 F       1  UNL1       -0.1832
     18 N          62.7482   82.4533   12.7343 N.ar    1  UNL1       -0.2029
     19 O          63.6468   90.5657   15.1374 O.3     1  UNL1       -0.4503
     20 C          64.9563   91.2884   15.2503 C.ar    1  UNL1        0.1835
     21 C          66.0248   91.0700   14.2203 C.ar    1  UNL1        0.1396
     22 N          67.3343   91.7927   14.3332 N.ar    1  UNL1       -0.2192
     23 C          67.5755   92.7339   15.4760 C.ar    1  UNL1        0.1991
     24 N          66.5071   92.9523   16.5059 N.ar    1  UNL1       -0.2192
     25 C          65.1975   92.2296   16.3931 C.ar    1  UNL1        0.1396
@<TRIPOS>BOND
     1     8     9    2
     2     9    10   am
     3    10    12    1
     4    12    13   ar
     5    13    14   ar
     6    14    15   ar
     7    15    16   ar
     8    16    17    1
     9    16    18   ar
    10     9     1    1
    11     1     2   ar
    12     2     3   ar
    13     3     4    1
    14     3     5   ar
    15     5     6   ar
    16     6    19    1
    17    19    20    1
    18    20    21   ar
    19    21    22   ar
    20    22    23   ar
    21    23    24   ar
    22    24    25   ar
    23     6     7   ar
    24    18    12   ar
    25     7     1   ar
    26    25    20   ar
    27    10    11    1
@<TRIPOS>MOLECULE
*****
 25 27 0 0 0
SMALL
GASTEIGER

@<TRIPOS>ATOM
      1 C          63.7728   86.4195   15.0623 C.ar    1  UNL1        0.0576
      2 C          63.2806   86.2158   16.4646 C.ar    1  UNL1        0.0161
      3 C          63.0628   87.3978   17.3620 C.ar    1  UNL1        0.0609
      4 CL         62.5706   87.1942   18.7643 Cl      1  UNL1       -0.0821
      5 C          63.3370   88.7834   16.8572 C.ar    1  UNL1        0.0489
      6 C          63.8291   88.9871   15.4550 C.ar    1  UNL1        0.1464
      7 C          64.0470   87.8051   14.5576 C.ar    1  UNL1        0.0421
      8 O          65.3010   84.5078   14.1904 O.2     1  UNL1       -0.2698
      9 C          63.9907   85.2375   14.1648 C.2     1  UNL1        0.2507
     10 N          62.8983   84.7852   13.2418 N.am    1  UNL1       -0.2657
     11 H          62.0383   85.2641   13.2250 H       1  UNL1        0.1566
     12 C          63.1162   83.6032   12.3443 C.ar    1  UNL1        0.1367
     13 C          63.7673   83.7879   11.0056 C.ar    1  UNL1        0.0346
     14 C          63.9851   82.6059   10.1082 C.ar    1  UNL1        0.0068
     15 C          63.5520   81.2393   10.5494 C.ar    1  UNL1        0.0498
     16 C          62.9009   81.0546   11.8880 C.ar    1  UNL1        0.2234
     17 F          62.4677   79.6879   12.3292 F       1  UNL1       -0.1832
     18 N          62.6830   82.2365   12.7854 N.ar    1  UNL1       -0.2029
     19 O          64.1034   90.3727   14.9502 O.3     1  UNL1       -0.4503
     20 C          63.8861   90.7003   13.5027 C.ar    1  UNL1        0.1835
     21 C          64.8341   91.6196   12.7912 C.ar    1  UNL1        0.1396
     22 N          64.6168   91.9472   11.3436 N.ar    1  UNL1       -0.2192
     23 C          63.4515   91.3555   10.6075 C.ar    1  UNL1        0.1991
     24 N          62.5034   90.4362   11.3189 N.ar    1  UNL1       -0.2192
     25 C          62.7207   90.1086   12.7665 C.ar    1  UNL1        0.1396
@<TRIPOS>BOND
     1     8     9    2
     2     9    10   am
     3    10    12    1
     4    12    13   ar
     5    13    14   ar
     6    14    15   ar
     7    15    16   ar
     8    16    17    1
     9    16    18   ar
    10     9     1    1
    11     1     2   ar
    12     2     3   ar
    13     3     4    1
    14     3     5   ar
    15     5     6   ar
    16     6    19    1
    17    19    20    1
    18    20    21   ar
    19    21    22   ar
    20    22    23   ar
    21    23    24   ar
    22    24    25   ar
    23     6     7   ar
    24    18    12   ar
    25     7     1   ar
    26    25    20   ar
    27    10    11    1
@<TRIPOS>MOLECULE
*****
 25 27 0 0 0
SMALL
GASTEIGER

@<TRIPOS>ATOM
      1 C          62.4456   89.6167   10.8568 C.ar    1  UNL1        0.0576
      2 C          61.5882   89.8945    9.6579 C.ar    1  UNL1        0.0161
      3 C          60.6451   88.8441    9.1507 C.ar    1  UNL1        0.0609
      4 CL         59.7876   89.1219    7.9517 Cl      1  UNL1       -0.0821
      5 C          60.5595   87.5159    9.8425 C.ar    1  UNL1        0.0489
      6 C          61.4170   87.2381   11.0415 C.ar    1  UNL1        0.1464
      7 C          62.3600   88.2885   11.5486 C.ar    1  UNL1        0.0421
      8 O          63.7828   91.8120   10.4785 O.2     1  UNL1       -0.2698
      9 C          63.3888   90.6671   11.3640 C.2     1  UNL1        0.2507
     10 N          63.9378   90.5727   12.7567 N.am    1  UNL1       -0.2657
     11 H          63.6792   89.8213   13.3379 H       1  UNL1        0.1566
     12 C          64.8809   91.6231   13.2639 C.ar    1  UNL1        0.1367
     13 C          65.4894   92.6082   12.3104 C.ar    1  UNL1        0.0346
     14 C          66.4325   93.6586   12.8177 C.ar    1  UNL1        0.0068
     15 C          66.7671   93.7238   14.2784 C.ar    1  UNL1        0.0498
     16 C          66.1586   92.7387   15.2319 C.ar    1  UNL1        0.2234
     17 F          66.4932   92.8039   16.6927 F       1  UNL1       -0.1832
     18 N          65.2155   91.6884   14.7247 N.ar    1  UNL1       -0.2029
     19 O          61.3313   85.9100   11.7333 O.3     1  UNL1       -0.4503
     20 C          62.4433   84.9142   11.5853 C.ar    1  UNL1        0.1835
     21 C          62.8808   84.4760   10.2190 C.ar    1  UNL1        0.1396
     22 N          63.9928   83.4802   10.0710 N.ar    1  UNL1       -0.2192
     23 C          64.6672   82.9226   11.2893 C.ar    1  UNL1        0.1991
     24 N          64.2298   83.3607   12.6555 N.ar    1  UNL1       -0.2192
     25 C          63.1178   84.3565   12.8035 C.ar    1  UNL1        0.1396
@<TRIPOS>BOND
     1     8     9    2
     2     9    10   am
     3    10    12    1
     4    12    13   ar
     5    13    14   ar
     6    14    15   ar
     7    15    16   ar
     8    16    17    1
     9    16    18   ar
    10     9     1    1
    11     1     2   ar
    12     2     3   ar
    13     3     4    1
    14     3     5   ar
    15     5     6   ar
    16     6    19    1
    17    19    20    1
    18    20    21   ar
    19    21    22   ar
    20    22    23   ar
    21    23    24   ar
    22    24    25   ar
    23     6     7   ar
    24    18    12   ar
    25     7     1   ar
    26    25    20   ar
    27    10    11    1
@<TRIPOS>MOLECULE
*****
 25 27 0 0 0
SMALL
GASTEIGER

@<TRIPOS>ATOM
      1 C          63.2983   90.0185   12.0579 C.ar    1  UNL1        0.0576
      2 C          64.1374   91.2371   11.8111 C.ar    1  UNL1        0.0161
      3 C          64.9092   91.8570   12.9380 C.ar    1  UNL1        0.0609
      4 CL         65.7484   93.0756   12.6913 Cl      1  UNL1       -0.0821
      5 C          64.8419   91.2583   14.3117 C.ar    1  UNL1        0.0489
      6 C          64.0028   90.0398   14.5585 C.ar    1  UNL1        0.1464
      7 C          63.2310   89.4199   13.4316 C.ar    1  UNL1        0.0421
      8 O          62.0229   90.2544    9.8067 O.2     1  UNL1       -0.2698
      9 C          62.5264   89.3986   10.9309 C.2     1  UNL1        0.2507
     10 N          62.2581   87.9228   10.9283 N.am    1  UNL1       -0.2657
     11 H          62.5886   87.3610   11.6662 H       1  UNL1        0.1566
     12 C          61.4863   87.3028    9.8013 C.ar    1  UNL1        0.1367
     13 C          60.0422   87.6544    9.5987 C.ar    1  UNL1        0.0346
     14 C          59.2705   87.0344    8.4718 C.ar    1  UNL1        0.0068
     15 C          59.9427   86.0629    7.5475 C.ar    1  UNL1        0.0498
     16 C          61.3868   85.7114    7.7502 C.ar    1  UNL1        0.2234
     17 F          62.0590   84.7398    6.8259 F       1  UNL1       -0.1832
     18 N          62.1585   86.3313    8.8771 N.ar    1  UNL1       -0.2029
     19 O          63.9355   89.4411   15.9322 O.3     1  UNL1       -0.4503
     20 C          63.5059   88.0148   16.1086 C.ar    1  UNL1        0.1835
     21 C          64.0781   86.9447   15.2267 C.ar    1  UNL1        0.1396
     22 N          63.6485   85.5184   15.4031 N.ar    1  UNL1       -0.2192
     23 C          62.6469   85.1621   16.4612 C.ar    1  UNL1        0.1991
     24 N          62.0747   86.2322   17.3430 N.ar    1  UNL1       -0.2192
     25 C          62.5042   87.6586   17.1667 C.ar    1  UNL1        0.1396
@<TRIPOS>BOND
     1     8     9    2
     2     9    10   am
     3    10    12    1
     4    12    13   ar
     5    13    14   ar
     6    14    15   ar
     7    15    16   ar
     8    16    17    1
     9    16    18   ar
    10     9     1    1
    11     1     2   ar
    12     2     3   ar
    13     3     4    1
    14     3     5   ar
    15     5     6   ar
    16     6    19    1
    17    19    20    1
    18    20    21   ar
    19    21    22   ar
    20    22    23   ar
    21    23    24   ar
    22    24    25   ar
    23     6     7   ar
    24    18    12   ar
    25     7     1   ar
    26    25    20   ar
    27    10    11    1
@<TRIPOS>MOLECULE
*****
 25 27 0 0 0
SMALL
GASTEIGER

@<TRIPOS>ATOM
      1 C          63.0544   88.2959   12.3226 C.ar    1  UNL1        0.0576
      2 C          63.5609   87.2163   13.2324 C.ar    1  UNL1        0.0161
      3 C          64.3466   87.5760   14.4584 C.ar    1  UNL1        0.0609
      4 CL         64.8531   86.4963   15.3682 Cl      1  UNL1       -0.0821
      5 C          64.6259   89.0155   14.7746 C.ar    1  UNL1        0.0489
      6 C          64.1194   90.0952   13.8648 C.ar    1  UNL1        0.1464
      7 C          63.3337   89.7354   12.6388 C.ar    1  UNL1        0.0421
      8 O          62.5647   86.6616   10.3632 O.2     1  UNL1       -0.2698
      9 C          62.2686   87.9362   11.0965 C.2     1  UNL1        0.2507
     10 N          61.1869   88.8510   10.6038 N.am    1  UNL1       -0.2657
     11 H          60.9925   89.6876   11.0851 H       1  UNL1        0.1566
     12 C          60.4011   88.4912    9.3777 C.ar    1  UNL1        0.1367
     13 C          59.8176   87.1165    9.2374 C.ar    1  UNL1        0.0346
     14 C          59.0319   86.7569    8.0114 C.ar    1  UNL1        0.0068
     15 C          58.8296   87.7719    6.9256 C.ar    1  UNL1        0.0498
     16 C          59.4131   89.1466    7.0659 C.ar    1  UNL1        0.2234
     17 F          59.2108   90.1616    5.9802 F       1  UNL1       -0.1832
     18 N          60.1988   89.5062    8.2919 N.ar    1  UNL1       -0.2029
     19 O          64.3987   91.5346   14.1810 O.3     1  UNL1       -0.4503
     20 C          65.7930   91.9710   14.5208 C.ar    1  UNL1        0.1835
     21 C          66.0978   92.5116   15.8864 C.ar    1  UNL1        0.1396
     22 N          67.4921   92.9480   16.2262 N.ar    1  UNL1       -0.2192
     23 C          68.5816   92.8438   15.2005 C.ar    1  UNL1        0.1991
     24 N          68.2768   92.3032   13.8349 N.ar    1  UNL1       -0.2192
     25 C          66.8825   91.8668   13.4951 C.ar    1  UNL1        0.1396
@<TRIPOS>BOND
     1     8     9    2
     2     9    10   am
     3    10    12    1
     4    12    13   ar
     5    13    14   ar
     6    14    15   ar
     7    15    16   ar
     8    16    17    1
     9    16    18   ar
    10     9     1    1
    11     1     2   ar
    12     2     3   ar
    13     3     4    1
    14     3     5   ar
    15     5     6   ar
    16     6    19    1
    17    19    20    1
    18    20    21   ar
    19    21    22   ar
    20    22    23   ar
    21    23    24   ar
    22    24    25   ar
    23     6     7   ar
    24    18    12   ar
    25     7     1   ar
    26    25    20   ar
    27    10    11    1
