@<TRIPOS>MOLECULE
*****
 33 37 0 0 0
SMALL
GASTEIGER

@<TRIPOS>ATOM
      1 C          61.3810   88.6141   11.1433 C.3     1  UNL1        0.1096
      2 C          60.3941   89.2749   10.2270 C.3     1  UNL1        0.1622
      3 O          59.8047   88.5076    9.0808 O.3     1  UNL1       -0.3502
      4 C          60.2020   87.0796    8.8509 C.3     1  UNL1        0.1637
      5 C          61.1888   86.4188    9.7672 C.3     1  UNL1        0.1257
      6 N          61.7783   87.1861   10.9134 N.am    1  UNL1       -0.2723
      7 C          62.7651   86.5253   11.8297 C.2     1  UNL1        0.2506
      8 O          63.3545   87.2926   12.9759 O.2     1  UNL1       -0.2699
      9 C          63.1624   85.0973   11.5998 C.ar    1  UNL1        0.0729
     10 C          63.3261   84.5802   10.2013 C.ar    1  UNL1        0.0061
     11 C          63.7234   83.1522    9.9714 C.ar    1  UNL1        0.0002
     12 C          63.9570   82.2412   11.1400 C.ar    1  UNL1        0.0016
     13 C          63.7932   82.7583   12.5385 C.ar    1  UNL1        0.0211
     14 C          63.3959   84.1864   12.7684 C.ar    1  UNL1        0.1072
     15 N          63.2322   84.7034   14.1669 N.ar    1  UNL1       -0.1477
     16 N          61.9658   84.6864   14.9706 N.ar    1  UNL1       -0.1447
     17 C          62.2569   85.3007   16.3077 C.ar    1  UNL1        0.1446
     18 C          63.7034   85.6975   16.3303 C.ar    1  UNL1        0.1446
     19 N          64.3061   85.3283   15.0073 N.ar    1  UNL1       -0.1447
     20 C          61.9705   89.3814   12.2895 C.3     1  UNL1        0.0488
     21 C          65.2824   92.3373   11.5520 C.ar    1  UNL1        0.1562
     22 C          64.3251   91.9931   10.4497 C.ar    1  UNL1        0.0381
     23 C          63.2211   91.0078   10.6956 C.ar    1  UNL1       -0.0010
     24 C          63.0744   90.3667   12.0437 C.ar    1  UNL1       -0.0187
     25 C          64.0317   90.7110   13.1460 C.ar    1  UNL1        0.0180
     26 C          65.1356   91.6963   12.9002 C.ar    1  UNL1        0.1163
     27 N          66.0929   92.0405   14.0025 N.ar    1  UNL1       -0.2252
     28 C          67.5682   91.7694   14.0058 C.ar    1  UNL1        0.1021
     29 C          68.1300   92.2776   15.3005 C.ar    1  UNL1        0.0431
     30 C          67.0019   92.8628   16.0974 C.ar    1  UNL1        0.1221
     31 N          65.7430   92.7163   15.2952 N.ar    1  UNL1       -0.1634
     32 C          66.1805   94.7742   11.6235 C.3     1  UNL1        0.2525
     33 O          66.3863   93.3226   11.3062 O.3     1  UNL1       -0.4699
@<TRIPOS>BOND
     1    32    33    1
     2    33    21    1
     3    21    22   ar
     4    22    23   ar
     5    23    24   ar
     6    24    20    1
     7     1    20    1
     8     1     2    1
     9     2     3    1
    10     3     4    1
    11     4     5    1
    12     5     6    1
    13     6     7   am
    14     7     8    2
    15     7     9    1
    16     9    10   ar
    17    10    11   ar
    18    11    12   ar
    19    12    13   ar
    20    13    14   ar
    21    14    15    1
    22    15    16   ar
    23    16    17   ar
    24    17    18   ar
    25    18    19   ar
    26    24    25   ar
    27    25    26   ar
    28    26    27    1
    29    27    28   ar
    30    28    29   ar
    31    29    30   ar
    32    30    31   ar
    33    26    21   ar
    34    31    27   ar
    35     6     1    1
    36    14     9   ar
    37    19    15   ar
@<TRIPOS>MOLECULE
*****
 33 37 0 0 0
SMALL
GASTEIGER

@<TRIPOS>ATOM
      1 C          62.1335   89.5136   11.8693 C.3     1  UNL1        0.1096
      2 C          61.4321   90.5557   11.0493 C.3     1  UNL1        0.1622
      3 O          60.8683   90.1988    9.7060 O.3     1  UNL1       -0.3502
      4 C          61.0059   88.7999    9.1824 C.3     1  UNL1        0.1637
      5 C          61.7072   87.7578   10.0023 C.3     1  UNL1        0.1257
      6 N          62.2710   88.1147   11.3457 N.am    1  UNL1       -0.2723
      7 C          62.9724   87.0726   12.1656 C.2     1  UNL1        0.2506
      8 O          63.5362   87.4295   13.5090 O.2     1  UNL1       -0.2699
      9 C          63.1099   85.6737   11.6421 C.ar    1  UNL1        0.0729
     10 C          63.1418   85.4262   10.1630 C.ar    1  UNL1        0.0061
     11 C          63.2793   84.0272    9.6395 C.ar    1  UNL1        0.0002
     12 C          63.3849   82.8758   10.5950 C.ar    1  UNL1        0.0016
     13 C          63.3531   83.1234   12.0741 C.ar    1  UNL1        0.0211
     14 C          63.2155   84.5223   12.5976 C.ar    1  UNL1        0.1072
     15 N          63.1837   84.7698   14.0767 N.ar    1  UNL1       -0.1477
     16 N          64.3697   85.0612   14.9477 N.ar    1  UNL1       -0.1447
     17 C          63.8793   85.2408   16.3538 C.ar    1  UNL1        0.1446
     18 C          62.3901   85.0605   16.3519 C.ar    1  UNL1        0.1446
     19 N          61.9603   84.7694   14.9446 N.ar    1  UNL1       -0.1447
     20 C          62.6973   89.8705   13.2127 C.3     1  UNL1        0.0488
     21 C          66.6267   92.0450   13.4982 C.ar    1  UNL1        0.1562
     22 C          66.1933   91.1306   14.6055 C.ar    1  UNL1        0.0381
     23 C          64.8835   90.4058   14.5103 C.ar    1  UNL1       -0.0010
     24 C          64.0071   90.5953   13.3078 C.ar    1  UNL1       -0.0187
     25 C          64.4405   91.5097   12.2006 C.ar    1  UNL1        0.0180
     26 C          65.7503   92.2345   12.2958 C.ar    1  UNL1        0.1163
     27 N          66.1836   93.1489   11.1884 N.ar    1  UNL1       -0.2252
     28 C          67.1780   92.8227   10.1138 C.ar    1  UNL1        0.1021
     29 C          67.3076   94.0222    9.2226 C.ar    1  UNL1        0.0431
     30 C          66.3933   95.0899    9.7464 C.ar    1  UNL1        0.1221
     31 N          65.6987   94.5501   10.9613 N.ar    1  UNL1       -0.1634
     32 C          68.7182   92.7413   14.8733 C.3     1  UNL1        0.2525
     33 O          67.9365   92.7698   13.5934 O.3     1  UNL1       -0.4699
@<TRIPOS>BOND
     1    32    33    1
     2    33    21    1
     3    21    22   ar
     4    22    23   ar
     5    23    24   ar
     6    24    20    1
     7     1    20    1
     8     1     2    1
     9     2     3    1
    10     3     4    1
    11     4     5    1
    12     5     6    1
    13     6     7   am
    14     7     8    2
    15     7     9    1
    16     9    10   ar
    17    10    11   ar
    18    11    12   ar
    19    12    13   ar
    20    13    14   ar
    21    14    15    1
    22    15    16   ar
    23    16    17   ar
    24    17    18   ar
    25    18    19   ar
    26    24    25   ar
    27    25    26   ar
    28    26    27    1
    29    27    28   ar
    30    28    29   ar
    31    29    30   ar
    32    30    31   ar
    33    26    21   ar
    34    31    27   ar
    35     6     1    1
    36    14     9   ar
    37    19    15   ar
@<TRIPOS>MOLECULE
*****
 33 37 0 0 0
SMALL
GASTEIGER

@<TRIPOS>ATOM
      1 C          63.2545   88.7561   15.4671 C.3     1  UNL1        0.1096
      2 C          63.1053   89.0590   16.9286 C.3     1  UNL1        0.1622
      3 O          63.0593   87.9394   17.9257 O.3     1  UNL1       -0.3502
      4 C          63.1625   86.5168   17.4614 C.3     1  UNL1        0.1637
      5 C          63.3117   86.2139   15.9999 C.3     1  UNL1        0.1257
      6 N          63.3578   87.3335   15.0027 N.am    1  UNL1       -0.2723
      7 C          63.5070   87.0306   13.5413 C.2     1  UNL1        0.2506
      8 O          63.5530   88.1502   12.5442 O.2     1  UNL1       -0.2699
      9 C          63.6102   85.6080   13.0769 C.ar    1  UNL1        0.0729
     10 C          64.4532   84.6294   13.8396 C.ar    1  UNL1        0.0061
     11 C          64.5564   83.2069   13.3752 C.ar    1  UNL1        0.0002
     12 C          63.8167   82.7629   12.1482 C.ar    1  UNL1        0.0016
     13 C          62.9738   83.7415   11.3855 C.ar    1  UNL1        0.0211
     14 C          62.8705   85.1641   11.8498 C.ar    1  UNL1        0.1072
     15 N          62.0275   86.1427   11.0871 N.ar    1  UNL1       -0.1477
     16 N          62.2467   86.5770    9.6681 N.ar    1  UNL1       -0.1447
     17 C          61.1721   87.5615    9.3134 C.ar    1  UNL1        0.1446
     18 C          60.2887   87.7357   10.5132 C.ar    1  UNL1        0.1446
     19 N          60.8174   86.8588   11.6093 N.ar    1  UNL1       -0.1447
     20 C          63.3005   89.8757   14.4700 C.3     1  UNL1        0.0488
     21 C          66.7782   92.7315   14.4523 C.ar    1  UNL1        0.1562
     22 C          66.1116   92.3695   15.7464 C.ar    1  UNL1        0.0381
     23 C          64.9524   91.4175   15.7522 C.ar    1  UNL1       -0.0010
     24 C          64.4597   90.8277   14.4641 C.ar    1  UNL1       -0.0187
     25 C          65.1263   91.1897   13.1701 C.ar    1  UNL1        0.0180
     26 C          66.2855   92.1417   13.1642 C.ar    1  UNL1        0.1163
     27 N          66.9521   92.5037   11.8701 N.ar    1  UNL1       -0.2252
     28 C          66.4167   93.4505   10.8372 C.ar    1  UNL1        0.1021
     29 C          67.4048   93.5145    9.7105 C.ar    1  UNL1        0.0431
     30 C          68.5510   92.6072   10.0471 C.ar    1  UNL1        0.1221
     31 N          68.2712   91.9826   11.3818 N.ar    1  UNL1       -0.1634
     32 C          68.8345   93.7803   15.6447 C.3     1  UNL1        0.2525
     33 O          67.9374   93.6835   14.4465 O.3     1  UNL1       -0.4699
@<TRIPOS>BOND
     1    32    33    1
     2    33    21    1
     3    21    22   ar
     4    22    23   ar
     5    23    24   ar
     6    24    20    1
     7     1    20    1
     8     1     2    1
     9     2     3    1
    10     3     4    1
    11     4     5    1
    12     5     6    1
    13     6     7   am
    14     7     8    2
    15     7     9    1
    16     9    10   ar
    17    10    11   ar
    18    11    12   ar
    19    12    13   ar
    20    13    14   ar
    21    14    15    1
    22    15    16   ar
    23    16    17   ar
    24    17    18   ar
    25    18    19   ar
    26    24    25   ar
    27    25    26   ar
    28    26    27    1
    29    27    28   ar
    30    28    29   ar
    31    29    30   ar
    32    30    31   ar
    33    26    21   ar
    34    31    27   ar
    35     6     1    1
    36    14     9   ar
    37    19    15   ar
