@<TRIPOS>MOLECULE
*****
 28 30 0 0 0
SMALL
GASTEIGER

@<TRIPOS>ATOM
      1 C          63.5135   86.7415   13.1160 C.ar    1  UNL1        0.0177
      2 C          62.7818   86.4140   11.8481 C.ar    1  UNL1       -0.0005
      3 C          62.2302   87.5170   10.9942 C.ar    1  UNL1        0.0143
      4 C          62.4103   88.9475   11.4082 C.ar    1  UNL1        0.0943
      5 CL         61.8588   90.0505   10.5543 Cl      1  UNL1       -0.0790
      6 C          63.1421   89.2749   12.6760 C.ar    1  UNL1        0.1826
      7 C          63.6937   88.1719   13.5299 C.ar    1  UNL1        0.1717
      8 F          64.4254   88.4994   14.7977 F       1  UNL1       -0.2012
      9 C          64.0651   85.6384   13.9698 C.3     1  UNL1        0.1148
     10 C          63.1443   81.3934   11.1182 C.3     1  UNL1        0.0575
     11 C          63.0523   82.1266   12.4236 C.3     1  UNL1        0.2442
     12 O          63.6047   83.5159   12.5440 O.2     1  UNL1       -0.4564
     13 C          63.5127   84.2490   13.8494 C.2     1  UNL1        0.2201
     14 N          62.8683   83.5928   15.0344 N.2     1  UNL1       -0.1456
     15 N          62.3159   82.2035   14.9139 N.am    1  UNL1       -0.2004
     16 C          62.4079   81.4704   13.6085 C.2     1  UNL1        0.2814
     17 O          61.8555   80.0809   13.4881 O.2     1  UNL1       -0.2695
     18 H          61.8930   81.7728   15.6916 H       1  UNL1        0.1775
     19 O          63.3222   90.7054   13.0900 O.3     1  UNL1       -0.4503
     20 C          64.6720   91.3515   12.9875 C.ar    1  UNL1        0.1470
     21 C          65.6318   91.2698   14.1372 C.ar    1  UNL1        0.0489
     22 C          66.9817   91.9160   14.0348 C.ar    1  UNL1        0.0614
     23 CL         67.9415   91.8342   15.1845 Cl      1  UNL1       -0.0821
     24 C          67.3716   92.6439   12.7825 C.ar    1  UNL1        0.0219
     25 C          66.4117   92.7256   11.6327 C.ar    1  UNL1        0.0723
     26 C          65.0619   92.0794   11.7352 C.ar    1  UNL1        0.0478
     27 C          66.8016   93.4535   10.3805 C.1     1  UNL1        0.1005
     28 N          67.1915   94.1814    9.1282 N.1     1  UNL1       -0.1908
@<TRIPOS>BOND
     1    10    11    1
     2    11    12    1
     3    12    13    1
     4    13     9    1
     5     9     1    1
     6     1     2   ar
     7     2     3   ar
     8     3     4   ar
     9     4     5    1
    10     4     6   ar
    11     6    19    1
    12    19    20    1
    13    20    21   ar
    14    21    22   ar
    15    22    23    1
    16    22    24   ar
    17    24    25   ar
    18    25    27    1
    19    27    28    3
    20    25    26   ar
    21     6     7   ar
    22     7     8    1
    23    13    14    2
    24    14    15    1
    25    15    16   am
    26    16    17    2
    27    16    11    1
    28     7     1   ar
    29    26    20   ar
    30    15    18    1
@<TRIPOS>MOLECULE
*****
 28 30 0 0 0
SMALL
GASTEIGER

@<TRIPOS>ATOM
      1 C          63.4835   86.8145   13.0557 C.ar    1  UNL1        0.0177
      2 C          62.7439   86.4506   11.8024 C.ar    1  UNL1       -0.0005
      3 C          62.1756   87.5281   10.9272 C.ar    1  UNL1        0.0143
      4 C          62.3469   88.9696   11.3053 C.ar    1  UNL1        0.0943
      5 CL         61.7786   90.0471   10.4301 Cl      1  UNL1       -0.0790
      6 C          63.0865   89.3335   12.5585 C.ar    1  UNL1        0.1826
      7 C          63.6548   88.2560   13.4337 C.ar    1  UNL1        0.1717
      8 F          64.3944   88.6199   14.6870 F       1  UNL1       -0.2012
      9 C          64.0518   85.7370   13.9309 C.3     1  UNL1        0.1148
     10 C          63.1392   81.4524   11.1364 C.3     1  UNL1        0.0575
     11 C          63.0668   82.1942   12.4381 C.3     1  UNL1        0.2442
     12 O          63.5955   83.5947   12.5337 O.2     1  UNL1       -0.4564
     13 C          63.5231   84.3365   13.8354 C.2     1  UNL1        0.2201
     14 N          62.9219   83.6779   15.0415 N.2     1  UNL1       -0.1456
     15 N          62.3932   82.2775   14.9459 N.am    1  UNL1       -0.2004
     16 C          62.4656   81.5356   13.6442 C.2     1  UNL1        0.2814
     17 O          61.9369   80.1351   13.5487 O.2     1  UNL1       -0.2695
     18 H          61.9986   81.8452   15.7376 H       1  UNL1        0.1775
     19 O          63.2578   90.7750   12.9366 O.3     1  UNL1       -0.4503
     20 C          64.5855   91.4470   12.7485 C.ar    1  UNL1        0.1470
     21 C          64.9431   92.0424   11.4190 C.ar    1  UNL1        0.0489
     22 C          66.2709   92.7144   11.2309 C.ar    1  UNL1        0.0614
     23 CL         66.6284   93.3098    9.9014 Cl      1  UNL1       -0.0821
     24 C          67.2411   92.7911   12.3723 C.ar    1  UNL1        0.0219
     25 C          66.8835   92.1957   13.7019 C.ar    1  UNL1        0.0723
     26 C          65.5557   91.5237   13.8900 C.ar    1  UNL1        0.0478
     27 C          67.8536   92.2723   14.8433 C.1     1  UNL1        0.1005
     28 N          68.8238   92.3490   15.9847 N.1     1  UNL1       -0.1908
@<TRIPOS>BOND
     1    10    11    1
     2    11    12    1
     3    12    13    1
     4    13     9    1
     5     9     1    1
     6     1     2   ar
     7     2     3   ar
     8     3     4   ar
     9     4     5    1
    10     4     6   ar
    11     6    19    1
    12    19    20    1
    13    20    21   ar
    14    21    22   ar
    15    22    23    1
    16    22    24   ar
    17    24    25   ar
    18    25    27    1
    19    27    28    3
    20    25    26   ar
    21     6     7   ar
    22     7     8    1
    23    13    14    2
    24    14    15    1
    25    15    16   am
    26    16    17    2
    27    16    11    1
    28     7     1   ar
    29    26    20   ar
    30    15    18    1
@<TRIPOS>MOLECULE
*****
 28 30 0 0 0
SMALL
GASTEIGER

@<TRIPOS>ATOM
      1 C          61.5972   89.0124   11.1586 C.ar    1  UNL1        0.0177
      2 C          60.4914   89.1930   10.1612 C.ar    1  UNL1       -0.0005
      3 C          60.1730   88.0971    9.1877 C.ar    1  UNL1        0.0143
      4 C          60.9604   86.8205    9.2117 C.ar    1  UNL1        0.0943
      5 CL         60.6420   85.7246    8.2383 Cl      1  UNL1       -0.0790
      6 C          62.0661   86.6399   10.2091 C.ar    1  UNL1        0.1826
      7 C          62.3845   87.7358   11.1825 C.ar    1  UNL1        0.1717
      8 F          63.4902   87.5552   12.1799 F       1  UNL1       -0.2012
      9 C          61.9156   90.1083   12.1320 C.3     1  UNL1        0.1148
     10 C          66.2453   92.2046   14.0965 C.3     1  UNL1        0.0575
     11 C          65.3212   91.9805   12.9364 C.3     1  UNL1        0.2442
     12 O          64.0805   91.1565   13.1142 O.2     1  UNL1       -0.4564
     13 C          63.1564   90.9323   11.9541 C.2     1  UNL1        0.2201
     14 N          63.4730   91.5321   10.6162 N.2     1  UNL1       -0.1456
     15 N          64.7137   92.3560   10.4384 N.am    1  UNL1       -0.2004
     16 C          65.6378   92.5802   11.5985 C.2     1  UNL1        0.2814
     17 O          66.8786   93.4042   11.4207 O.2     1  UNL1       -0.2695
     18 H          64.9215   92.7497    9.5603 H       1  UNL1        0.1775
     19 O          62.8534   85.3633   10.2331 O.3     1  UNL1       -0.4503
     20 C          62.7578   84.4453   11.4154 C.ar    1  UNL1        0.1470
     21 C          62.8056   82.9593   11.2169 C.ar    1  UNL1        0.0489
     22 C          62.7100   82.0411   12.3993 C.ar    1  UNL1        0.0614
     23 CL         62.7579   80.5551   12.2007 Cl      1  UNL1       -0.0821
     24 C          62.5664   82.6091   13.7801 C.ar    1  UNL1        0.0219
     25 C          62.5185   84.0951   13.9787 C.ar    1  UNL1        0.0723
     26 C          62.6142   85.0132   12.7963 C.ar    1  UNL1        0.0478
     27 C          62.3750   84.6631   15.3595 C.1     1  UNL1        0.1005
     28 N          62.2314   85.2310   16.7404 N.1     1  UNL1       -0.1908
@<TRIPOS>BOND
     1    10    11    1
     2    11    12    1
     3    12    13    1
     4    13     9    1
     5     9     1    1
     6     1     2   ar
     7     2     3   ar
     8     3     4   ar
     9     4     5    1
    10     4     6   ar
    11     6    19    1
    12    19    20    1
    13    20    21   ar
    14    21    22   ar
    15    22    23    1
    16    22    24   ar
    17    24    25   ar
    18    25    27    1
    19    27    28    3
    20    25    26   ar
    21     6     7   ar
    22     7     8    1
    23    13    14    2
    24    14    15    1
    25    15    16   am
    26    16    17    2
    27    16    11    1
    28     7     1   ar
    29    26    20   ar
    30    15    18    1
@<TRIPOS>MOLECULE
*****
 28 30 0 0 0
SMALL
GASTEIGER

@<TRIPOS>ATOM
      1 C          61.9597   90.5028   11.0911 C.ar    1  UNL1        0.0177
      2 C          63.0823   91.1155   10.3071 C.ar    1  UNL1       -0.0005
      3 C          64.3535   91.5086   10.9996 C.ar    1  UNL1        0.0143
      4 C          64.5020   91.2890   12.4761 C.ar    1  UNL1        0.0943
      5 CL         65.7732   91.6821   13.1686 Cl      1  UNL1       -0.0790
      6 C          63.3795   90.6764   13.2599 C.ar    1  UNL1        0.1826
      7 C          62.1083   90.2833   12.5674 C.ar    1  UNL1        0.1717
      8 F          60.9857   89.6706   13.3513 F       1  UNL1       -0.2012
      9 C          60.6885   90.1097   10.3986 C.3     1  UNL1        0.1148
     10 C          62.7415   85.5448    9.0033 C.3     1  UNL1        0.0575
     11 C          61.6727   86.5872    8.8581 C.3     1  UNL1        0.2442
     12 O          61.7150   87.8273    9.7009 O.2     1  UNL1       -0.4564
     13 C          60.6462   88.8696    9.5557 C.2     1  UNL1        0.2201
     14 N          59.5350   88.6719    8.5676 N.2     1  UNL1       -0.1456
     15 N          59.4928   87.4318    7.7248 N.am    1  UNL1       -0.2004
     16 C          60.5616   86.3895    7.8700 C.2     1  UNL1        0.2814
     17 O          60.5193   85.1494    7.0271 O.2     1  UNL1       -0.2695
     18 H          58.7635   87.3021    7.0763 H       1  UNL1        0.1775
     19 O          63.5281   90.4568   14.7363 O.3     1  UNL1       -0.4503
     20 C          63.5340   89.0629   15.2904 C.ar    1  UNL1        0.1470
     21 C          63.0772   88.8131   16.6971 C.ar    1  UNL1        0.0489
     22 C          63.0831   87.4192   17.2513 C.ar    1  UNL1        0.0614
     23 CL         62.6263   87.1694   18.6580 Cl      1  UNL1       -0.0821
     24 C          63.5458   86.2751   16.3987 C.ar    1  UNL1        0.0219
     25 C          64.0026   86.5249   14.9919 C.ar    1  UNL1        0.0723
     26 C          63.9967   87.9188   14.4378 C.ar    1  UNL1        0.0478
     27 C          64.4653   85.3809   14.1392 C.1     1  UNL1        0.1005
     28 N          64.9280   84.2368   13.2866 N.1     1  UNL1       -0.1908
@<TRIPOS>BOND
     1    10    11    1
     2    11    12    1
     3    12    13    1
     4    13     9    1
     5     9     1    1
     6     1     2   ar
     7     2     3   ar
     8     3     4   ar
     9     4     5    1
    10     4     6   ar
    11     6    19    1
    12    19    20    1
    13    20    21   ar
    14    21    22   ar
    15    22    23    1
    16    22    24   ar
    17    24    25   ar
    18    25    27    1
    19    27    28    3
    20    25    26   ar
    21     6     7   ar
    22     7     8    1
    23    13    14    2
    24    14    15    1
    25    15    16   am
    26    16    17    2
    27    16    11    1
    28     7     1   ar
    29    26    20   ar
    30    15    18    1
@<TRIPOS>MOLECULE
*****
 28 30 0 0 0
SMALL
GASTEIGER

@<TRIPOS>ATOM
      1 C          60.6594   88.5030    9.4427 C.ar    1  UNL1        0.0177
      2 C          59.6782   88.1616    8.3605 C.ar    1  UNL1       -0.0005
      3 C          59.8521   86.9053    7.5596 C.ar    1  UNL1        0.0143
      4 C          61.0071   85.9903    7.8409 C.ar    1  UNL1        0.0943
      5 CL         61.1809   84.7340    7.0400 Cl      1  UNL1       -0.0790
      6 C          61.9881   86.3317    8.9229 C.ar    1  UNL1        0.1826
      7 C          61.8143   87.5881    9.7238 C.ar    1  UNL1        0.1717
      8 F          62.7954   87.9295   10.8059 F       1  UNL1       -0.2012
      9 C          60.4856   89.7593   10.2436 C.3     1  UNL1        0.1148
     10 C          64.9364   92.1707   11.4164 C.3     1  UNL1        0.0575
     11 C          63.7474   91.3601   11.8398 C.3     1  UNL1        0.2442
     12 O          62.7110   90.9650   10.8300 O.2     1  UNL1       -0.4564
     13 C          61.5220   90.1544   11.2534 C.2     1  UNL1        0.2201
     14 N          61.3695   89.7389   12.6866 N.2     1  UNL1       -0.1456
     15 N          62.4059   90.1340   13.6964 N.am    1  UNL1       -0.2004
     16 C          63.5948   90.9446   13.2730 C.2     1  UNL1        0.2814
     17 O          64.6313   91.3397   14.2828 O.2     1  UNL1       -0.2695
     18 H          62.3058   89.8613   14.6370 H       1  UNL1        0.1775
     19 O          63.1431   85.4168    9.2041 O.3     1  UNL1       -0.4503
     20 C          63.0509   84.4119   10.3139 C.ar    1  UNL1        0.1470
     21 C          63.1822   82.9483   10.0131 C.ar    1  UNL1        0.0489
     22 C          63.0900   81.9433   11.1229 C.ar    1  UNL1        0.0614
     23 CL         63.2213   80.4797   10.8221 Cl      1  UNL1       -0.0821
     24 C          62.8665   82.4020   12.5334 C.ar    1  UNL1        0.0219
     25 C          62.7352   83.8657   12.8342 C.ar    1  UNL1        0.0723
     26 C          62.8274   84.8706   11.7244 C.ar    1  UNL1        0.0478
     27 C          62.5118   84.3244   14.2447 C.1     1  UNL1        0.1005
     28 N          62.2883   84.7831   15.6553 N.1     1  UNL1       -0.1908
@<TRIPOS>BOND
     1    10    11    1
     2    11    12    1
     3    12    13    1
     4    13     9    1
     5     9     1    1
     6     1     2   ar
     7     2     3   ar
     8     3     4   ar
     9     4     5    1
    10     4     6   ar
    11     6    19    1
    12    19    20    1
    13    20    21   ar
    14    21    22   ar
    15    22    23    1
    16    22    24   ar
    17    24    25   ar
    18    25    27    1
    19    27    28    3
    20    25    26   ar
    21     6     7   ar
    22     7     8    1
    23    13    14    2
    24    14    15    1
    25    15    16   am
    26    16    17    2
    27    16    11    1
    28     7     1   ar
    29    26    20   ar
    30    15    18    1
@<TRIPOS>MOLECULE
*****
 28 30 0 0 0
SMALL
GASTEIGER

@<TRIPOS>ATOM
      1 C          61.5374   89.2572   11.1117 C.ar    1  UNL1        0.0177
      2 C          60.4078   89.3022   10.1257 C.ar    1  UNL1       -0.0005
      3 C          60.1159   88.1090    9.2648 C.ar    1  UNL1        0.0143
      4 C          60.9535   86.8710    9.3898 C.ar    1  UNL1        0.0943
      5 CL         60.6616   85.6778    8.5289 Cl      1  UNL1       -0.0790
      6 C          62.0830   86.8260   10.3758 C.ar    1  UNL1        0.1826
      7 C          62.3750   88.0192   11.2367 C.ar    1  UNL1        0.1717
      8 F          63.5045   87.9742   12.2227 F       1  UNL1       -0.2012
      9 C          61.8293   90.4503   11.9727 C.3     1  UNL1        0.1148
     10 C          66.1354   92.4703   14.0649 C.3     1  UNL1        0.0575
     11 C          65.2793   92.1978   12.8637 C.3     1  UNL1        0.2442
     12 O          63.9824   91.4603   13.0188 O.2     1  UNL1       -0.4564
     13 C          63.1263   91.1878   11.8176 C.2     1  UNL1        0.2201
     14 N          63.5672   91.6527   10.4613 N.2     1  UNL1       -0.1456
     15 N          64.8641   92.3901   10.3063 N.am    1  UNL1       -0.2004
     16 C          65.7202   92.6627   11.5075 C.2     1  UNL1        0.2814
     17 O          67.0172   93.4001   11.3524 O.2     1  UNL1       -0.2695
     18 H          65.1535   92.6953    9.4161 H       1  UNL1        0.1775
     19 O          62.9207   85.5879   10.5008 O.3     1  UNL1       -0.4503
     20 C          62.9621   84.8385   11.7995 C.ar    1  UNL1        0.1470
     21 C          63.3098   85.5572   13.0694 C.ar    1  UNL1        0.0489
     22 C          63.3513   84.8077   14.3681 C.ar    1  UNL1        0.0614
     23 CL         63.6989   85.5264   15.6380 Cl      1  UNL1       -0.0821
     24 C          63.0451   83.3396   14.3969 C.ar    1  UNL1        0.0219
     25 C          62.6975   82.6209   13.1269 C.ar    1  UNL1        0.0723
     26 C          62.6560   83.3703   11.8283 C.ar    1  UNL1        0.0478
     27 C          62.3913   81.1528   13.1557 C.1     1  UNL1        0.1005
     28 N          62.0852   79.6846   13.1845 N.1     1  UNL1       -0.1908
@<TRIPOS>BOND
     1    10    11    1
     2    11    12    1
     3    12    13    1
     4    13     9    1
     5     9     1    1
     6     1     2   ar
     7     2     3   ar
     8     3     4   ar
     9     4     5    1
    10     4     6   ar
    11     6    19    1
    12    19    20    1
    13    20    21   ar
    14    21    22   ar
    15    22    23    1
    16    22    24   ar
    17    24    25   ar
    18    25    27    1
    19    27    28    3
    20    25    26   ar
    21     6     7   ar
    22     7     8    1
    23    13    14    2
    24    14    15    1
    25    15    16   am
    26    16    17    2
    27    16    11    1
    28     7     1   ar
    29    26    20   ar
    30    15    18    1
@<TRIPOS>MOLECULE
*****
 28 30 0 0 0
SMALL
GASTEIGER

@<TRIPOS>ATOM
      1 C          63.8099   84.4752   13.7515 C.ar    1  UNL1        0.0177
      2 C          64.9520   83.7051   13.1577 C.ar    1  UNL1       -0.0005
      3 C          64.9251   83.3224   11.7076 C.ar    1  UNL1        0.0143
      4 C          63.7560   83.7099   10.8513 C.ar    1  UNL1        0.0943
      5 CL         63.7291   83.3272    9.4011 Cl      1  UNL1       -0.0790
      6 C          62.6140   84.4800   11.4450 C.ar    1  UNL1        0.1826
      7 C          62.6409   84.8626   12.8952 C.ar    1  UNL1        0.1717
      8 F          61.4988   85.6328   13.4889 F       1  UNL1       -0.2012
      9 C          63.8368   84.8579   15.2016 C.3     1  UNL1        0.1148
     10 C          64.7344   89.9035   14.3435 C.3     1  UNL1        0.0575
     11 C          64.1170   88.8165   15.1726 C.3     1  UNL1        0.2442
     12 O          64.2856   87.3807   14.7726 O.2     1  UNL1       -0.4564
     13 C          63.6682   86.2937   15.6016 C.2     1  UNL1        0.2201
     14 N          62.8822   86.6426   16.8307 N.2     1  UNL1       -0.1456
     15 N          62.7137   88.0784   17.2306 N.am    1  UNL1       -0.2004
     16 C          63.3311   89.1653   16.4016 C.2     1  UNL1        0.2814
     17 O          63.1625   90.6012   16.8016 O.2     1  UNL1       -0.2695
     18 H          62.1978   88.3073   18.0373 H       1  UNL1        0.1775
     19 O          61.4449   84.8674   10.5887 O.3     1  UNL1       -0.4503
     20 C          61.2880   86.2874   10.1316 C.ar    1  UNL1        0.1470
     21 C          60.2975   86.6242    9.0568 C.ar    1  UNL1        0.0489
     22 C          60.1405   88.0443    8.5997 C.ar    1  UNL1        0.0614
     23 CL         59.1499   88.3811    7.5249 Cl      1  UNL1       -0.0821
     24 C          60.9742   89.1275    9.2175 C.ar    1  UNL1        0.0219
     25 C          61.9648   88.7906   10.2923 C.ar    1  UNL1        0.0723
     26 C          62.1217   87.3706   10.7494 C.ar    1  UNL1        0.0478
     27 C          62.7985   89.8739   10.9101 C.1     1  UNL1        0.1005
     28 N          63.6322   90.9571   11.5279 N.1     1  UNL1       -0.1908
@<TRIPOS>BOND
     1    10    11    1
     2    11    12    1
     3    12    13    1
     4    13     9    1
     5     9     1    1
     6     1     2   ar
     7     2     3   ar
     8     3     4   ar
     9     4     5    1
    10     4     6   ar
    11     6    19    1
    12    19    20    1
    13    20    21   ar
    14    21    22   ar
    15    22    23    1
    16    22    24   ar
    17    24    25   ar
    18    25    27    1
    19    27    28    3
    20    25    26   ar
    21     6     7   ar
    22     7     8    1
    23    13    14    2
    24    14    15    1
    25    15    16   am
    26    16    17    2
    27    16    11    1
    28     7     1   ar
    29    26    20   ar
    30    15    18    1
@<TRIPOS>MOLECULE
*****
 28 30 0 0 0
SMALL
GASTEIGER

@<TRIPOS>ATOM
      1 C          61.0504   88.1506   10.3296 C.ar    1  UNL1        0.0177
      2 C          60.2235   88.0898    9.0795 C.ar    1  UNL1       -0.0005
      3 C          60.4620   87.0018    8.0748 C.ar    1  UNL1        0.0143
      4 C          61.5274   85.9747    8.3202 C.ar    1  UNL1        0.0943
      5 CL         61.7659   84.8867    7.3155 Cl      1  UNL1       -0.0790
      6 C          62.3542   86.0356    9.5702 C.ar    1  UNL1        0.1826
      7 C          62.1157   87.1236   10.5749 C.ar    1  UNL1        0.1717
      8 F          62.9425   87.1845   11.8250 F       1  UNL1       -0.2012
      9 C          60.8119   89.2386   11.3343 C.3     1  UNL1        0.1148
     10 C          63.7867   90.3225   15.4545 C.3     1  UNL1        0.0575
     11 C          63.4617   90.5084   14.0019 C.3     1  UNL1        0.2442
     12 O          62.2993   89.7806   13.3944 O.2     1  UNL1       -0.4564
     13 C          61.9743   89.9664   11.9418 C.2     1  UNL1        0.2201
     14 N          62.8118   90.8800   11.0968 N.2     1  UNL1       -0.1456
     15 N          63.9741   91.6078   11.7044 N.am    1  UNL1       -0.2004
     16 C          64.2991   91.4220   13.1569 C.2     1  UNL1        0.2814
     17 O          65.4616   92.1498   13.7645 O.2     1  UNL1       -0.2695
     18 H          64.5238   92.2074   11.1498 H       1  UNL1        0.1775
     19 O          63.4196   85.0085    9.8157 O.3     1  UNL1       -0.4503
     20 C          63.1742   83.8902   10.7847 C.ar    1  UNL1        0.1470
     21 C          62.9533   84.1916   12.2374 C.ar    1  UNL1        0.0489
     22 C          62.7079   83.0732   13.2065 C.ar    1  UNL1        0.0614
     23 CL         62.4870   83.3746   14.6592 Cl      1  UNL1       -0.0821
     24 C          62.6834   81.6535   12.7229 C.ar    1  UNL1        0.0219
     25 C          62.9044   81.3522   11.2701 C.ar    1  UNL1        0.0723
     26 C          63.1497   82.4705   10.3011 C.ar    1  UNL1        0.0478
     27 C          62.8799   79.9325   10.7865 C.1     1  UNL1        0.1005
     28 N          62.8555   78.5128   10.3029 N.1     1  UNL1       -0.1908
@<TRIPOS>BOND
     1    10    11    1
     2    11    12    1
     3    12    13    1
     4    13     9    1
     5     9     1    1
     6     1     2   ar
     7     2     3   ar
     8     3     4   ar
     9     4     5    1
    10     4     6   ar
    11     6    19    1
    12    19    20    1
    13    20    21   ar
    14    21    22   ar
    15    22    23    1
    16    22    24   ar
    17    24    25   ar
    18    25    27    1
    19    27    28    3
    20    25    26   ar
    21     6     7   ar
    22     7     8    1
    23    13    14    2
    24    14    15    1
    25    15    16   am
    26    16    17    2
    27    16    11    1
    28     7     1   ar
    29    26    20   ar
    30    15    18    1
@<TRIPOS>MOLECULE
*****
 28 30 0 0 0
SMALL
GASTEIGER

@<TRIPOS>ATOM
      1 C          63.5090   85.6255   16.1734 C.ar    1  UNL1        0.0177
      2 C          62.6377   86.1504   17.2759 C.ar    1  UNL1       -0.0005
      3 C          62.4963   87.6296   17.4804 C.ar    1  UNL1        0.0143
      4 C          63.2261   88.5840   16.5823 C.ar    1  UNL1        0.0943
      5 CL         63.0847   90.0633   16.7868 Cl      1  UNL1       -0.0790
      6 C          64.0974   88.0592   15.4799 C.ar    1  UNL1        0.1826
      7 C          64.2388   86.5799   15.2755 C.ar    1  UNL1        0.1717
      8 F          65.1101   86.0551   14.1729 F       1  UNL1       -0.2012
      9 C          63.6504   84.1462   15.9690 C.3     1  UNL1        0.1148
     10 C          62.5162   84.6952   10.9279 C.3     1  UNL1        0.0575
     11 C          62.9877   83.8419   12.0679 C.3     1  UNL1        0.2442
     12 O          63.0833   84.4207   13.4484 O.2     1  UNL1       -0.4564
     13 C          63.5548   83.5674   14.5884 C.2     1  UNL1        0.2201
     14 N          63.9306   82.1353   14.3480 N.2     1  UNL1       -0.1456
     15 N          63.8350   81.5565   12.9675 N.am    1  UNL1       -0.2004
     16 C          63.3635   82.4098   11.8275 C.2     1  UNL1        0.2814
     17 O          63.2679   81.8310   10.4469 O.2     1  UNL1       -0.2695
     18 H          64.0816   80.6166   12.8096 H       1  UNL1        0.1775
     19 O          64.8273   89.0136   14.5818 O.3     1  UNL1       -0.4503
     20 C          64.1834   89.4922   13.3144 C.ar    1  UNL1        0.1470
     21 C          64.6052   90.7962   12.7050 C.ar    1  UNL1        0.0489
     22 C          63.9613   91.2749   11.4375 C.ar    1  UNL1        0.0614
     23 CL         64.3831   92.5790   10.8281 Cl      1  UNL1       -0.0821
     24 C          62.8957   90.4494   10.7796 C.ar    1  UNL1        0.0219
     25 C          62.4739   89.1452   11.3890 C.ar    1  UNL1        0.0723
     26 C          63.1178   88.6667   12.6564 C.ar    1  UNL1        0.0478
     27 C          61.4083   88.3198   10.7310 C.1     1  UNL1        0.1005
     28 N          60.3426   87.4943   10.0730 N.1     1  UNL1       -0.1908
@<TRIPOS>BOND
     1    10    11    1
     2    11    12    1
     3    12    13    1
     4    13     9    1
     5     9     1    1
     6     1     2   ar
     7     2     3   ar
     8     3     4   ar
     9     4     5    1
    10     4     6   ar
    11     6    19    1
    12    19    20    1
    13    20    21   ar
    14    21    22   ar
    15    22    23    1
    16    22    24   ar
    17    24    25   ar
    18    25    27    1
    19    27    28    3
    20    25    26   ar
    21     6     7   ar
    22     7     8    1
    23    13    14    2
    24    14    15    1
    25    15    16   am
    26    16    17    2
    27    16    11    1
    28     7     1   ar
    29    26    20   ar
    30    15    18    1
