@<TRIPOS>MOLECULE
*****
 28 31 0 0 0
SMALL
GASTEIGER

@<TRIPOS>ATOM
      1 C          63.8591   87.1589   13.8844 C.3     1  UNL1        0.0795
      2 C          64.0326   88.6470   13.8117 C.3     1  UNL1        0.0178
      3 C          63.5226   89.4044   12.6217 C.3     1  UNL1        0.0029
      4 C          62.8390   88.6736   11.5043 C.3     1  UNL1        0.0178
      5 C          62.6654   87.1855   11.5769 C.3     1  UNL1        0.0798
      6 N          63.1755   86.4281   12.7670 N.3     1  UNL1       -0.1583
      7 C          61.9818   86.4547   10.4595 C.3     1  UNL1        0.0224
      8 C          61.7723   85.5103    9.3131 C.3     1  UNL1        0.0018
      9 C          63.1100   85.5859    9.9878 C.3     1  UNL1        0.0018
     10 C          60.6162   87.0696   10.5432 C.3     1  UNL1        0.0706
     11 C          59.9280   87.5404    9.2963 C.ar    1  UNL1        0.1805
     12 N          58.7435   86.8909    8.6441 N.ar    1  UNL1       -0.0606
     13 O          58.3869   87.6924    7.4275 O.2     1  UNL1       -0.3373
     14 C          59.3510   88.8373    7.3276 C.ar    1  UNL1        0.2368
     15 C          59.3608   89.8910    6.2601 C.3     1  UNL1        0.0978
     16 N          60.3034   88.7433    8.4826 N.ar    1  UNL1       -0.1949
     17 S          63.0019   84.9399   12.8396 S.O2    1  UNL1        0.0632
     18 O          61.6128   85.1281   13.3735 O.2     1  UNL1       -0.1528
     19 O          64.1771   84.4516   12.3892 O.2     1  UNL1       -0.1528
     20 C          62.8282   83.4518   12.9123 C.ar    1  UNL1        0.1222
     21 C          63.1495   82.6001   11.7200 C.ar    1  UNL1        0.0208
     22 C          62.9759   81.1120   11.7926 C.ar    1  UNL1        0.0128
     23 C          62.4810   80.4755   13.0575 C.ar    1  UNL1        0.0578
     24 CL         62.3073   78.9874   13.1302 Cl      1  UNL1       -0.0822
     25 C          62.1597   81.3271   14.2498 C.ar    1  UNL1        0.0128
     26 C          62.3333   82.8153   14.1772 C.ar    1  UNL1        0.0208
     27 C          63.5146   86.2658   16.2997 C.3     1  UNL1        0.0015
     28 C          64.3691   86.4015   15.0745 C.3     1  UNL1        0.0177
@<TRIPOS>BOND
     1    27    28    1
     2     1    28    1
     3     1     2    1
     4     2     3    1
     5     3     4    1
     6     4     5    1
     7     5     7    1
     8     7    10    1
     9    10    11    1
    10    11    12   ar
    11    12    13   ar
    12    13    14   ar
    13    14    15    1
    14    14    16   ar
    15     7     8    1
    16     8     9    1
    17     5     6    1
    18     6    17    1
    19    17    18    2
    20    17    19    2
    21    17    20    1
    22    20    21   ar
    23    21    22   ar
    24    22    23   ar
    25    23    24    1
    26    23    25   ar
    27    25    26   ar
    28     6     1    1
    29    26    20   ar
    30     9     7    1
    31    16    11   ar
@<TRIPOS>MOLECULE
*****
 28 31 0 0 0
SMALL
GASTEIGER

@<TRIPOS>ATOM
      1 C          59.9769   88.8102    9.0608 C.3     1  UNL1        0.0795
      2 C          59.0646   88.2420    8.0144 C.3     1  UNL1        0.0178
      3 C          59.2270   86.8184    7.5708 C.3     1  UNL1        0.0029
      4 C          60.3016   85.9629    8.1735 C.3     1  UNL1        0.0178
      5 C          61.2139   86.5311    9.2198 C.3     1  UNL1        0.0798
      6 N          61.0515   87.9548    9.6635 N.3     1  UNL1       -0.1583
      7 C          62.2886   85.6756    9.8225 C.3     1  UNL1        0.0224
      8 C          63.5607   84.8907    9.9484 C.3     1  UNL1        0.0018
      9 C          63.2302   85.5817    8.6586 C.3     1  UNL1        0.0018
     10 C          61.7202   85.4725   11.1957 C.3     1  UNL1        0.0706
     11 C          62.4165   84.5685   12.1694 C.ar    1  UNL1        0.1805
     12 N          63.1254   84.9981   13.4197 N.ar    1  UNL1       -0.0606
     13 O          63.6731   83.7714   14.0868 O.2     1  UNL1       -0.3373
     14 C          63.3028   82.5836   13.2489 C.ar    1  UNL1        0.2368
     15 C          63.6484   81.1541   13.5442 C.3     1  UNL1        0.0978
     16 N          62.5261   83.0763   12.0639 N.ar    1  UNL1       -0.1949
     17 S          61.9639   88.5229   10.7099 S.O2    1  UNL1        0.0632
     18 O          62.8772   89.0347    9.6357 O.2     1  UNL1       -0.1528
     19 O          61.3649   88.1998   11.8758 O.2     1  UNL1       -0.1528
     20 C          62.8762   89.0911   11.7562 C.ar    1  UNL1        0.1222
     21 C          63.3890   88.2146   12.8602 C.ar    1  UNL1        0.0208
     22 C          64.3013   88.7828   13.9065 C.ar    1  UNL1        0.0128
     23 C          64.7009   90.2274   13.8489 C.ar    1  UNL1        0.0578
     24 CL         65.6132   90.7956   14.8952 Cl      1  UNL1       -0.0822
     25 C          64.1881   91.1039   12.7449 C.ar    1  UNL1        0.0128
     26 C          63.2758   90.5358   11.6985 C.ar    1  UNL1        0.0208
     27 C          59.4524   90.5393   10.9277 C.3     1  UNL1        0.0015
     28 C          59.8145   90.2339    9.5045 C.3     1  UNL1        0.0177
@<TRIPOS>BOND
     1    27    28    1
     2     1    28    1
     3     1     2    1
     4     2     3    1
     5     3     4    1
     6     4     5    1
     7     5     7    1
     8     7    10    1
     9    10    11    1
    10    11    12   ar
    11    12    13   ar
    12    13    14   ar
    13    14    15    1
    14    14    16   ar
    15     7     8    1
    16     8     9    1
    17     5     6    1
    18     6    17    1
    19    17    18    2
    20    17    19    2
    21    17    20    1
    22    20    21   ar
    23    21    22   ar
    24    22    23   ar
    25    23    24    1
    26    23    25   ar
    27    25    26   ar
    28     6     1    1
    29    26    20   ar
    30     9     7    1
    31    16    11   ar
@<TRIPOS>MOLECULE
*****
 28 31 0 0 0
SMALL
GASTEIGER

@<TRIPOS>ATOM
      1 C          65.5442   91.8717   12.7862 C.3     1  UNL1        0.0795
      2 C          65.8514   92.8179   11.6636 C.3     1  UNL1        0.0178
      3 C          64.9749   92.8475   10.4466 C.3     1  UNL1        0.0029
      4 C          63.7914   91.9309   10.3523 C.3     1  UNL1        0.0178
      5 C          63.4842   90.9847   11.4749 C.3     1  UNL1        0.0798
      6 N          64.3606   90.9551   12.6919 N.3     1  UNL1       -0.1583
      7 C          62.3006   90.0680   11.3806 C.3     1  UNL1        0.0224
      8 C          60.9285   89.5090   11.6147 C.3     1  UNL1        0.0018
      9 C          61.3466   90.7795   12.2936 C.3     1  UNL1        0.0018
     10 C          62.8436   89.0381   10.4348 C.3     1  UNL1        0.0706
     11 C          61.9331   87.9939    9.8596 C.ar    1  UNL1        0.1805
     12 N          61.9828   86.5233   10.1512 N.ar    1  UNL1       -0.0606
     13 O          60.8936   85.8576    9.3637 O.2     1  UNL1       -0.3373
     14 C          60.1706   86.9167    8.5854 C.ar    1  UNL1        0.2368
     15 C          59.0091   86.6944    7.6626 C.3     1  UNL1        0.0978
     16 N          60.8131   88.2371    8.8919 N.ar    1  UNL1       -0.1949
     17 S          64.0534   90.0088   13.8145 S.O2    1  UNL1        0.0632
     18 O          63.5376   91.1522   14.6370 O.2     1  UNL1       -0.1528
     19 O          64.4370   88.8043   13.3407 O.2     1  UNL1       -0.1528
     20 C          63.7462   89.0627   14.9372 C.ar    1  UNL1        0.1222
     21 C          63.1384   89.5786   16.2078 C.ar    1  UNL1        0.0208
     22 C          62.8312   88.6324   17.3304 C.ar    1  UNL1        0.0128
     23 C          63.1318   87.1703   17.1825 C.ar    1  UNL1        0.0578
     24 CL         62.8246   86.2242   18.3051 Cl      1  UNL1       -0.0822
     25 C          63.7396   86.6544   15.9120 C.ar    1  UNL1        0.0128
     26 C          64.0469   87.6006   14.7893 C.ar    1  UNL1        0.0208
     27 C          66.5470   93.0625   14.8662 C.3     1  UNL1        0.0015
     28 C          66.4206   91.8422   14.0032 C.3     1  UNL1        0.0177
@<TRIPOS>BOND
     1    27    28    1
     2     1    28    1
     3     1     2    1
     4     2     3    1
     5     3     4    1
     6     4     5    1
     7     5     7    1
     8     7    10    1
     9    10    11    1
    10    11    12   ar
    11    12    13   ar
    12    13    14   ar
    13    14    15    1
    14    14    16   ar
    15     7     8    1
    16     8     9    1
    17     5     6    1
    18     6    17    1
    19    17    18    2
    20    17    19    2
    21    17    20    1
    22    20    21   ar
    23    21    22   ar
    24    22    23   ar
    25    23    24    1
    26    23    25   ar
    27    25    26   ar
    28     6     1    1
    29    26    20   ar
    30     9     7    1
    31    16    11   ar
@<TRIPOS>MOLECULE
*****
 28 31 0 0 0
SMALL
GASTEIGER

@<TRIPOS>ATOM
      1 C          60.3295   86.7450    7.8639 C.3     1  UNL1        0.0795
      2 C          59.5365   87.5419    6.8710 C.3     1  UNL1        0.0178
      3 C          59.2488   88.9910    7.1308 C.3     1  UNL1        0.0029
      4 C          59.7542   89.6431    8.3834 C.3     1  UNL1        0.0178
      5 C          60.5473   88.8461    9.3763 C.3     1  UNL1        0.0798
      6 N          60.8349   87.3971    9.1166 N.3     1  UNL1       -0.1583
      7 C          61.0527   89.4982   10.6291 C.3     1  UNL1        0.0224
      8 C          61.0661   90.0536   12.0224 C.3     1  UNL1        0.0018
      9 C          59.8111   89.4462   11.4691 C.3     1  UNL1        0.0018
     10 C          62.4699   89.7768   10.2241 C.3     1  UNL1        0.0706
     11 C          63.3781   90.5353   11.1460 C.ar    1  UNL1        0.1805
     12 N          64.0654   91.8322   10.8365 N.ar    1  UNL1       -0.0606
     13 O          64.8705   92.2286   12.0384 O.2     1  UNL1       -0.3373
     14 C          64.6808   91.1766   13.0908 C.ar    1  UNL1        0.2368
     15 C          65.3040   91.1720   14.4553 C.3     1  UNL1        0.0978
     16 N          63.7584   90.1301   12.5392 N.ar    1  UNL1       -0.1949
     17 S          61.6280   86.6001   10.1095 S.O2    1  UNL1        0.0632
     18 O          62.8372   86.7055    9.2282 O.2     1  UNL1       -0.1528
     19 O          60.7448   86.3346   11.0954 O.2     1  UNL1       -0.1528
     20 C          62.4211   85.8032   11.1024 C.ar    1  UNL1        0.1222
     21 C          62.7847   84.3792   10.8022 C.ar    1  UNL1        0.0208
     22 C          63.5778   83.5823   11.7951 C.ar    1  UNL1        0.0128
     23 C          64.0074   84.2093   13.0882 C.ar    1  UNL1        0.0578
     24 CL         64.8005   83.4124   14.0811 Cl      1  UNL1       -0.0822
     25 C          63.6439   85.6333   13.3885 C.ar    1  UNL1        0.0128
     26 C          62.8507   86.4303   12.3956 C.ar    1  UNL1        0.0208
     27 C          61.6628   84.9069    6.6015 C.3     1  UNL1        0.0015
     28 C          60.6172   85.2959    7.6041 C.3     1  UNL1        0.0177
@<TRIPOS>BOND
     1    27    28    1
     2     1    28    1
     3     1     2    1
     4     2     3    1
     5     3     4    1
     6     4     5    1
     7     5     7    1
     8     7    10    1
     9    10    11    1
    10    11    12   ar
    11    12    13   ar
    12    13    14   ar
    13    14    15    1
    14    14    16   ar
    15     7     8    1
    16     8     9    1
    17     5     6    1
    18     6    17    1
    19    17    18    2
    20    17    19    2
    21    17    20    1
    22    20    21   ar
    23    21    22   ar
    24    22    23   ar
    25    23    24    1
    26    23    25   ar
    27    25    26   ar
    28     6     1    1
    29    26    20   ar
    30     9     7    1
    31    16    11   ar
@<TRIPOS>MOLECULE
*****
 28 31 0 0 0
SMALL
GASTEIGER

@<TRIPOS>ATOM
      1 C          63.0715   85.6550   12.5433 C.3     1  UNL1        0.0795
      2 C          63.9094   85.2263   13.7111 C.3     1  UNL1        0.0178
      3 C          64.5487   86.2568   14.5940 C.3     1  UNL1        0.0029
      4 C          64.3501   87.7160   14.3089 C.3     1  UNL1        0.0178
      5 C          63.5122   88.1447   13.1410 C.3     1  UNL1        0.0798
      6 N          62.8729   87.1142   12.2582 N.3     1  UNL1       -0.1583
      7 C          63.3135   89.6039   12.8559 C.3     1  UNL1        0.0224
      8 C          63.2679   90.8991   12.1007 C.3     1  UNL1        0.0018
      9 C          63.6850   89.6384   11.4030 C.3     1  UNL1        0.0018
     10 C          62.8731   90.0761   14.2098 C.3     1  UNL1        0.0706
     11 C          63.7765   90.9482   15.0304 C.ar    1  UNL1        0.1805
     12 N          63.4320   91.5858   16.3438 N.ar    1  UNL1       -0.0606
     13 O          64.6255   92.3675   16.8068 O.2     1  UNL1       -0.3373
     14 C          65.7077   92.2130   15.7797 C.ar    1  UNL1        0.2368
     15 C          67.0746   92.8278   15.8398 C.3     1  UNL1        0.0978
     16 N          65.1829   91.3359   14.6818 N.ar    1  UNL1       -0.1949
     17 S          62.0349   87.5430   11.0903 S.O2    1  UNL1        0.0632
     18 O          60.8948   87.8418   12.0180 O.2     1  UNL1       -0.1528
     19 O          62.8481   87.3754   10.0258 O.2     1  UNL1       -0.1528
     20 C          61.1969   87.9718    9.9224 C.ar    1  UNL1        0.1222
     21 C          60.9333   89.4290    9.6833 C.ar    1  UNL1        0.0208
     22 C          60.0953   89.8577    8.5154 C.ar    1  UNL1        0.0128
     23 C          59.5210   88.8294    7.5867 C.ar    1  UNL1        0.0578
     24 CL         58.6830   89.2582    6.4188 Cl      1  UNL1       -0.0822
     25 C          59.7846   87.3722    7.8257 C.ar    1  UNL1        0.0128
     26 C          60.6226   86.9434    8.9937 C.ar    1  UNL1        0.0208
     27 C          63.2876   83.6921   10.8551 C.3     1  UNL1        0.0015
     28 C          62.4321   84.6246   11.6604 C.3     1  UNL1        0.0177
@<TRIPOS>BOND
     1    27    28    1
     2     1    28    1
     3     1     2    1
     4     2     3    1
     5     3     4    1
     6     4     5    1
     7     5     7    1
     8     7    10    1
     9    10    11    1
    10    11    12   ar
    11    12    13   ar
    12    13    14   ar
    13    14    15    1
    14    14    16   ar
    15     7     8    1
    16     8     9    1
    17     5     6    1
    18     6    17    1
    19    17    18    2
    20    17    19    2
    21    17    20    1
    22    20    21   ar
    23    21    22   ar
    24    22    23   ar
    25    23    24    1
    26    23    25   ar
    27    25    26   ar
    28     6     1    1
    29    26    20   ar
    30     9     7    1
    31    16    11   ar
@<TRIPOS>MOLECULE
*****
 28 31 0 0 0
SMALL
GASTEIGER

@<TRIPOS>ATOM
      1 C          65.0801   91.9904   12.4677 C.3     1  UNL1        0.0795
      2 C          66.1044   92.7469   13.2604 C.3     1  UNL1        0.0178
      3 C          66.3768   92.3706   14.6867 C.3     1  UNL1        0.0029
      4 C          65.6250   91.2379   15.3202 C.3     1  UNL1        0.0178
      5 C          64.6007   90.4814   14.5275 C.3     1  UNL1        0.0798
      6 N          64.3282   90.8577   13.1012 N.3     1  UNL1       -0.1583
      7 C          63.8487   89.3485   15.1610 C.3     1  UNL1        0.0224
      8 C          62.8120   88.6183   15.9623 C.3     1  UNL1        0.0018
      9 C          62.7676   90.1145   15.8643 C.3     1  UNL1        0.0018
     10 C          64.6687   88.1892   14.6777 C.3     1  UNL1        0.0706
     11 C          64.1499   86.7897   14.8269 C.ar    1  UNL1        0.1805
     12 N          64.0446   86.0205   16.1104 N.ar    1  UNL1       -0.0606
     13 O          63.4749   84.6691   15.7956 O.2     1  UNL1       -0.3373
     14 C          63.2281   84.6030   14.3175 C.ar    1  UNL1        0.2368
     15 C          62.6633   83.4319   13.5694 C.3     1  UNL1        0.0978
     16 N          63.6453   85.9136   13.7188 N.ar    1  UNL1       -0.1949
     17 S          63.3039   90.1011   12.3085 S.O2    1  UNL1        0.0632
     18 O          62.3685   91.2700   12.4017 O.2     1  UNL1       -0.1528
     19 O          63.8977   88.9156   12.0545 O.2     1  UNL1       -0.1528
     20 C          62.2795   89.3446   11.5158 C.ar    1  UNL1        0.1222
     21 C          62.3878   87.8548   11.3784 C.ar    1  UNL1        0.0208
     22 C          61.3635   87.0983   10.5857 C.ar    1  UNL1        0.0128
     23 C          60.2308   87.8315    9.9304 C.ar    1  UNL1        0.0578
     24 CL         59.2064   87.0750    9.1377 Cl      1  UNL1       -0.0822
     25 C          60.1224   89.3212   10.0678 C.ar    1  UNL1        0.0128
     26 C          61.1468   90.0778   10.8606 C.ar    1  UNL1        0.0208
     27 C          65.6857   93.3662   10.3487 C.3     1  UNL1        0.0015
     28 C          64.8077   92.3667   11.0415 C.3     1  UNL1        0.0177
@<TRIPOS>BOND
     1    27    28    1
     2     1    28    1
     3     1     2    1
     4     2     3    1
     5     3     4    1
     6     4     5    1
     7     5     7    1
     8     7    10    1
     9    10    11    1
    10    11    12   ar
    11    12    13   ar
    12    13    14   ar
    13    14    15    1
    14    14    16   ar
    15     7     8    1
    16     8     9    1
    17     5     6    1
    18     6    17    1
    19    17    18    2
    20    17    19    2
    21    17    20    1
    22    20    21   ar
    23    21    22   ar
    24    22    23   ar
    25    23    24    1
    26    23    25   ar
    27    25    26   ar
    28     6     1    1
    29    26    20   ar
    30     9     7    1
    31    16    11   ar
@<TRIPOS>MOLECULE
*****
 28 31 0 0 0
SMALL
GASTEIGER

@<TRIPOS>ATOM
      1 C          63.5152   84.5185    9.7385 C.3     1  UNL1        0.0795
      2 C          64.3129   83.2535    9.6221 C.3     1  UNL1        0.0178
      3 C          64.6889   82.4878   10.8559 C.3     1  UNL1        0.0029
      4 C          64.2673   82.9870   12.2061 C.3     1  UNL1        0.0178
      5 C          63.4696   84.2519   12.3224 C.3     1  UNL1        0.0798
      6 N          63.0935   85.0177   11.0886 N.3     1  UNL1       -0.1583
      7 C          63.0479   84.7512   13.6726 C.3     1  UNL1        0.0224
      8 C          62.2298   84.9294   14.9172 C.3     1  UNL1        0.0018
      9 C          61.7599   84.0001   13.8375 C.3     1  UNL1        0.0018
     10 C          64.1894   85.6756   13.9766 C.3     1  UNL1        0.0706
     11 C          63.9466   86.9384   14.7489 C.ar    1  UNL1        0.1805
     12 N          63.3982   87.0282   16.1423 N.ar    1  UNL1       -0.0606
     13 O          63.3222   88.4783   16.5180 O.2     1  UNL1       -0.3373
     14 C          63.8236   89.2848   15.3569 C.ar    1  UNL1        0.2368
     15 C          63.9218   90.7806   15.2993 C.3     1  UNL1        0.0978
     16 N          64.2094   88.3331   14.2635 N.ar    1  UNL1       -0.1949
     17 S          62.2958   86.2826   11.2050 S.O2    1  UNL1        0.0632
     18 O          61.0475   85.5274   10.8566 O.2     1  UNL1       -0.1528
     19 O          63.2122   87.2176   11.5347 O.2     1  UNL1       -0.1528
     20 C          61.4980   87.5475   11.3214 C.ar    1  UNL1        0.1222
     21 C          60.0012   87.5008   11.2356 C.ar    1  UNL1        0.0208
     22 C          59.2034   88.7657   11.3520 C.ar    1  UNL1        0.0128
     23 C          59.9025   90.0774   11.5542 C.ar    1  UNL1        0.0578
     24 CL         59.1047   91.3423   11.6706 Cl      1  UNL1       -0.0822
     25 C          61.3992   90.1241   11.6400 C.ar    1  UNL1        0.0128
     26 C          62.1971   88.8592   11.5236 C.ar    1  UNL1        0.0208
     27 C          62.6965   84.5514    7.2730 C.3     1  UNL1        0.0015
     28 C          63.1392   85.2842    8.5047 C.3     1  UNL1        0.0177
@<TRIPOS>BOND
     1    27    28    1
     2     1    28    1
     3     1     2    1
     4     2     3    1
     5     3     4    1
     6     4     5    1
     7     5     7    1
     8     7    10    1
     9    10    11    1
    10    11    12   ar
    11    12    13   ar
    12    13    14   ar
    13    14    15    1
    14    14    16   ar
    15     7     8    1
    16     8     9    1
    17     5     6    1
    18     6    17    1
    19    17    18    2
    20    17    19    2
    21    17    20    1
    22    20    21   ar
    23    21    22   ar
    24    22    23   ar
    25    23    24    1
    26    23    25   ar
    27    25    26   ar
    28     6     1    1
    29    26    20   ar
    30     9     7    1
    31    16    11   ar
@<TRIPOS>MOLECULE
*****
 28 31 0 0 0
SMALL
GASTEIGER

@<TRIPOS>ATOM
      1 C          63.7198   94.9812   -0.2479 C.3     1  UNL1        0.0795
      2 C          64.1948   95.7929   -1.4165 C.3     1  UNL1        0.0178
      3 C          63.2238   96.2208   -2.4767 C.3     1  UNL1        0.0029
      4 C          61.7778   95.8370   -2.3684 C.3     1  UNL1        0.0178
      5 C          61.3028   95.0254   -1.1998 C.3     1  UNL1        0.0798
      6 N          62.2738   94.5975   -0.1396 N.3     1  UNL1       -0.1583
      7 C          59.8568   94.6416   -1.0914 C.3     1  UNL1        0.0224
      8 C          58.4083   94.6990   -0.7060 C.3     1  UNL1        0.0018
      9 C          59.3474   95.7786   -0.2560 C.3     1  UNL1        0.0018
     10 C          59.8640   93.3714   -1.8892 C.3     1  UNL1        0.0706
     11 C          59.0069   93.2503   -3.1143 C.ar    1  UNL1        0.1805
     12 N          59.1011   94.1039   -4.3442 N.ar    1  UNL1       -0.0606
     13 O          58.0577   93.6356   -5.3146 O.2     1  UNL1       -0.3373
     14 C          57.3184   92.4925   -4.6844 C.ar    1  UNL1        0.2368
     15 C          56.1905   91.7227   -5.3052 C.3     1  UNL1        0.0978
     16 N          57.9052   92.2544   -3.3246 N.ar    1  UNL1       -0.1949
     17 S          61.7987   93.7858    1.0290 S.O2    1  UNL1        0.0632
     18 O          61.5802   95.0448    1.8145 O.2     1  UNL1       -0.1528
     19 O          61.8862   92.5096    0.5974 O.2     1  UNL1       -0.1528
     20 C          61.3237   92.9742    2.1975 C.ar    1  UNL1        0.1222
     21 C          59.9005   93.0846    2.6584 C.ar    1  UNL1        0.0208
     22 C          59.4254   92.2730    3.8269 C.ar    1  UNL1        0.0128
     23 C          60.3735   91.3510    4.5347 C.ar    1  UNL1        0.0578
     24 CL         59.8984   90.5394    5.7033 Cl      1  UNL1       -0.0822
     25 C          61.7967   91.2405    4.0739 C.ar    1  UNL1        0.0128
     26 C          62.2718   92.0522    2.9053 C.ar    1  UNL1        0.0208
     27 C          65.4048   93.2399    0.6894 C.3     1  UNL1        0.0015
     28 C          64.6908   94.5533    0.8123 C.3     1  UNL1        0.0177
@<TRIPOS>BOND
     1    27    28    1
     2     1    28    1
     3     1     2    1
     4     2     3    1
     5     3     4    1
     6     4     5    1
     7     5     7    1
     8     7    10    1
     9    10    11    1
    10    11    12   ar
    11    12    13   ar
    12    13    14   ar
    13    14    15    1
    14    14    16   ar
    15     7     8    1
    16     8     9    1
    17     5     6    1
    18     6    17    1
    19    17    18    2
    20    17    19    2
    21    17    20    1
    22    20    21   ar
    23    21    22   ar
    24    22    23   ar
    25    23    24    1
    26    23    25   ar
    27    25    26   ar
    28     6     1    1
    29    26    20   ar
    30     9     7    1
    31    16    11   ar
@<TRIPOS>MOLECULE
*****
 28 31 0 0 0
SMALL
GASTEIGER

@<TRIPOS>ATOM
      1 C          65.0909   92.0199   15.7412 C.3     1  UNL1        0.0795
      2 C          64.3838   91.5583   16.9809 C.3     1  UNL1        0.0178
      3 C          63.3624   90.4630   16.8980 C.3     1  UNL1        0.0029
      4 C          63.0479   89.8293   15.5754 C.3     1  UNL1        0.0178
      5 C          63.7549   90.2909   14.3356 C.3     1  UNL1        0.0798
      6 N          64.7764   91.3862   14.4185 N.3     1  UNL1       -0.1583
      7 C          63.4405   89.6571   13.0129 C.3     1  UNL1        0.0224
      8 C          62.8322   89.4522   11.6572 C.3     1  UNL1        0.0018
      9 C          62.4851   90.6719   12.4584 C.3     1  UNL1        0.0018
     10 C          64.2867   88.4222   13.1081 C.3     1  UNL1        0.0706
     11 C          63.6421   87.0873   13.3372 C.ar    1  UNL1        0.1805
     12 N          62.7674   86.3520   12.3654 N.ar    1  UNL1       -0.0606
     13 O          62.3438   85.0636   13.0059 O.2     1  UNL1       -0.3373
     14 C          62.9567   85.0024   14.3737 C.ar    1  UNL1        0.2368
     15 C          62.7955   83.8864   15.3630 C.3     1  UNL1        0.0978
     16 N          63.7591   86.2532   14.5784 N.ar    1  UNL1       -0.1949
     17 S          65.4834   91.8477   13.1787 S.O2    1  UNL1        0.0632
     18 O          66.6852   91.0361   13.5619 O.2     1  UNL1       -0.1528
     19 O          64.5879   92.6570   12.5741 O.2     1  UNL1       -0.1528
     20 C          66.1904   92.3092   11.9389 C.ar    1  UNL1        0.1222
     21 C          67.5472   91.7650   11.6026 C.ar    1  UNL1        0.0208
     22 C          68.2542   92.2265   10.3628 C.ar    1  UNL1        0.0128
     23 C          67.6046   93.2323    9.4593 C.ar    1  UNL1        0.0578
     24 CL         68.3116   93.6938    8.2195 Cl      1  UNL1       -0.0822
     25 C          66.2479   93.7765    9.7956 C.ar    1  UNL1        0.0128
     26 C          65.5408   93.3150   11.0354 C.ar    1  UNL1        0.0208
     27 C          67.5127   92.8033   16.2619 C.3     1  UNL1        0.0015
     28 C          66.1123   93.1152   15.8240 C.3     1  UNL1        0.0177
@<TRIPOS>BOND
     1    27    28    1
     2     1    28    1
     3     1     2    1
     4     2     3    1
     5     3     4    1
     6     4     5    1
     7     5     7    1
     8     7    10    1
     9    10    11    1
    10    11    12   ar
    11    12    13   ar
    12    13    14   ar
    13    14    15    1
    14    14    16   ar
    15     7     8    1
    16     8     9    1
    17     5     6    1
    18     6    17    1
    19    17    18    2
    20    17    19    2
    21    17    20    1
    22    20    21   ar
    23    21    22   ar
    24    22    23   ar
    25    23    24    1
    26    23    25   ar
    27    25    26   ar
    28     6     1    1
    29    26    20   ar
    30     9     7    1
    31    16    11   ar
