@<TRIPOS>MOLECULE
*****
 22 25 0 0 0
SMALL
GASTEIGER

@<TRIPOS>ATOM
      1 O          62.8063   86.2425   18.0349 O.2     1  UNL1       -0.2638
      2 C          63.1648   86.4303   16.5906 C.ar    1  UNL1        0.2947
      3 N          63.5388   87.7908   16.0814 N.ar    1  UNL1       -0.3062
      4 C          63.8973   87.9786   14.6371 C.ar    1  UNL1        0.1338
      5 N          63.8818   86.8059   13.7018 N.ar    1  UNL1       -0.2279
      6 C          63.5079   85.4454   14.2110 C.ar    1  UNL1        0.1247
      7 C          63.1493   85.2576   15.6553 C.ar    1  UNL1        0.2184
      8 O          62.8247   83.8087   15.8677 O.2     1  UNL1       -0.4471
      9 C          62.9826   83.1010   14.5546 C.ar    1  UNL1        0.1471
     10 C          62.7965   81.6661   14.1589 C.ar    1  UNL1        0.0384
     11 C          63.0326   81.2429   12.7394 C.ar    1  UNL1        0.0145
     12 C          63.4548   82.2545   11.7155 C.ar    1  UNL1        0.0579
     13 CL         63.6909   81.8312   10.2959 Cl      1  UNL1       -0.0822
     14 C          63.6409   83.6893   12.1111 C.ar    1  UNL1        0.0160
     15 C          63.4049   84.1126   13.5306 C.ar    1  UNL1        0.0562
     16 H          63.5489   88.5604   16.6952 H       1  UNL1        0.1702
     17 C          64.2713   89.3391   14.1279 C.3     1  UNL1        0.1116
     18 C          63.6824   90.0250   12.9309 C.3     1  UNL1        0.0249
     19 C          64.3470   91.3624   12.7895 C.3     1  UNL1        0.0189
     20 C          65.3465   91.5029   13.8991 C.3     1  UNL1        0.0689
     21 N          65.2997   90.2525   14.7263 N.3     1  UNL1       -0.2926
     22 H          65.0423   90.4819   15.6862 H       1  UNL1        0.1236
@<TRIPOS>BOND
     1     1     2    2
     2     2     3   ar
     3     3     4   ar
     4    17     4    1
     5    17    18    1
     6    18    19    1
     7    19    20    1
     8    20    21    1
     9     4     5   ar
    10     5     6   ar
    11     6     7   ar
    12     7     8   ar
    13     8     9   ar
    14     9    10   ar
    15    10    11   ar
    16    11    12   ar
    17    12    13    1
    18    12    14   ar
    19    14    15   ar
    20     7     2   ar
    21    15     9   ar
    22    21    17    1
    23    15     6   ar
    24     3    16    1
    25    21    22    1
@<TRIPOS>MOLECULE
*****
 22 25 0 0 0
SMALL
GASTEIGER

@<TRIPOS>ATOM
      1 O          64.7362   90.7414   14.6077 O.2     1  UNL1       -0.2638
      2 C          64.4612   91.1193   13.1824 C.ar    1  UNL1        0.2947
      3 N          65.2449   92.2219   12.5343 N.ar    1  UNL1       -0.3062
      4 C          64.9699   92.5998   11.1090 C.ar    1  UNL1        0.1338
      5 N          63.9113   91.8751   10.3318 N.ar    1  UNL1       -0.2279
      6 C          63.1276   90.7724   10.9798 C.ar    1  UNL1        0.1247
      7 C          63.4026   90.3945   12.4052 C.ar    1  UNL1        0.2184
      8 O          62.4760   89.2743   12.7747 O.2     1  UNL1       -0.4471
      9 C          61.6283   88.9599   11.5777 C.ar    1  UNL1        0.1471
     10 C          60.5418   87.9502   11.3546 C.ar    1  UNL1        0.0384
     11 C          59.8580   87.8663   10.0222 C.ar    1  UNL1        0.0145
     12 C          60.2608   88.7922    8.9129 C.ar    1  UNL1        0.0579
     13 CL         59.5770   88.7083    7.5804 Cl      1  UNL1       -0.0822
     14 C          61.3473   89.8019    9.1360 C.ar    1  UNL1        0.0160
     15 C          62.0311   89.8858   10.4684 C.ar    1  UNL1        0.0562
     16 H          65.9397   92.6976   13.0445 H       1  UNL1        0.1702
     17 C          65.7536   93.7025   10.4608 C.3     1  UNL1        0.1116
     18 C          67.1139   93.5715    9.8425 C.3     1  UNL1        0.0249
     19 C          67.5156   94.9177    9.3168 C.3     1  UNL1        0.0189
     20 C          66.4035   95.8806    9.6102 C.3     1  UNL1        0.0689
     21 N          65.3146   95.1296   10.3173 N.3     1  UNL1       -0.2926
     22 H          64.4535   95.1737    9.7723 H       1  UNL1        0.1236
@<TRIPOS>BOND
     1     1     2    2
     2     2     3   ar
     3     3     4   ar
     4    17     4    1
     5    17    18    1
     6    18    19    1
     7    19    20    1
     8    20    21    1
     9     4     5   ar
    10     5     6   ar
    11     6     7   ar
    12     7     8   ar
    13     8     9   ar
    14     9    10   ar
    15    10    11   ar
    16    11    12   ar
    17    12    13    1
    18    12    14   ar
    19    14    15   ar
    20     7     2   ar
    21    15     9   ar
    22    21    17    1
    23    15     6   ar
    24     3    16    1
    25    21    22    1
@<TRIPOS>MOLECULE
*****
 22 25 0 0 0
SMALL
GASTEIGER

@<TRIPOS>ATOM
      1 O          64.7153   87.0617   14.7513 O.2     1  UNL1       -0.2638
      2 C          63.8830   86.3017   13.7615 C.ar    1  UNL1        0.2947
      3 N          63.7981   84.8064   13.8445 N.ar    1  UNL1       -0.3062
      4 C          62.9659   84.0464   12.8547 C.ar    1  UNL1        0.1338
      5 N          62.2185   84.7817   11.7819 N.ar    1  UNL1       -0.2279
      6 C          62.3033   86.2769   11.6989 C.ar    1  UNL1        0.1247
      7 C          63.1356   87.0370   12.6887 C.ar    1  UNL1        0.2184
      8 O          63.0290   88.4966   12.3600 O.2     1  UNL1       -0.4471
      9 C          62.1308   88.6387   11.1670 C.ar    1  UNL1        0.1471
     10 C          61.6634   89.8400   10.4000 C.ar    1  UNL1        0.0384
     11 C          60.7476   89.6694    9.2244 C.ar    1  UNL1        0.0145
     12 C          60.2991   88.2976    8.8158 C.ar    1  UNL1        0.0579
     13 CL         59.3832   88.1270    7.6402 Cl      1  UNL1       -0.0822
     14 C          60.7665   87.0963    9.5829 C.ar    1  UNL1        0.0160
     15 C          61.6824   87.2668   10.7584 C.ar    1  UNL1        0.0562
     16 H          64.2887   84.3238   14.5486 H       1  UNL1        0.1702
     17 C          62.8810   82.5510   12.9376 C.3     1  UNL1        0.1116
     18 C          62.8434   81.6043   11.7748 C.3     1  UNL1        0.0249
     19 C          62.7580   80.2081   12.3164 C.3     1  UNL1        0.0189
     20 C          62.7428   80.2920   13.8140 C.3     1  UNL1        0.0689
     21 N          62.8189   81.7400   14.1979 N.3     1  UNL1       -0.2926
     22 H          63.6549   81.9062   14.7580 H       1  UNL1        0.1236
@<TRIPOS>BOND
     1     1     2    2
     2     2     3   ar
     3     3     4   ar
     4    17     4    1
     5    17    18    1
     6    18    19    1
     7    19    20    1
     8    20    21    1
     9     4     5   ar
    10     5     6   ar
    11     6     7   ar
    12     7     8   ar
    13     8     9   ar
    14     9    10   ar
    15    10    11   ar
    16    11    12   ar
    17    12    13    1
    18    12    14   ar
    19    14    15   ar
    20     7     2   ar
    21    15     9   ar
    22    21    17    1
    23    15     6   ar
    24     3    16    1
    25    21    22    1
@<TRIPOS>MOLECULE
*****
 22 25 0 0 0
SMALL
GASTEIGER

@<TRIPOS>ATOM
      1 O          63.6856   89.2267   13.0756 O.2     1  UNL1       -0.2638
      2 C          62.9986   88.1613   12.2738 C.ar    1  UNL1        0.2947
      3 N          62.1355   88.5401   11.1070 N.ar    1  UNL1       -0.3062
      4 C          61.4485   87.4747   10.3052 C.ar    1  UNL1        0.1338
      5 N          61.6247   86.0305   10.6702 N.ar    1  UNL1       -0.2279
      6 C          62.4878   85.6517   11.8370 C.ar    1  UNL1        0.1247
      7 C          63.1748   86.7171   12.6388 C.ar    1  UNL1        0.2184
      8 O          63.9577   86.0453   13.7277 O.2     1  UNL1       -0.4471
      9 C          63.7546   84.5647   13.5988 C.ar    1  UNL1        0.1471
     10 C          64.2796   83.4066   14.3945 C.ar    1  UNL1        0.0384
     11 C          63.8960   82.0052   14.0217 C.ar    1  UNL1        0.0145
     12 C          62.9875   81.7620   12.8532 C.ar    1  UNL1        0.0579
     13 CL         62.6040   80.3605   12.4804 Cl      1  UNL1       -0.0822
     14 C          62.4626   82.9200   12.0575 C.ar    1  UNL1        0.0160
     15 C          62.8462   84.3214   12.4303 C.ar    1  UNL1        0.0562
     16 H          62.0199   89.4880   10.8674 H       1  UNL1        0.1702
     17 C          60.5853   87.8535    9.1383 C.3     1  UNL1        0.1116
     18 C          59.7504   86.9154    8.3181 C.3     1  UNL1        0.0249
     19 C          59.0546   87.7189    7.2597 C.3     1  UNL1        0.0189
     20 C          59.4596   89.1536    7.4258 C.3     1  UNL1        0.0689
     21 N          60.4056   89.2368    8.5868 N.3     1  UNL1       -0.2926
     22 H          60.0186   89.8484    9.3056 H       1  UNL1        0.1236
@<TRIPOS>BOND
     1     1     2    2
     2     2     3   ar
     3     3     4   ar
     4    17     4    1
     5    17    18    1
     6    18    19    1
     7    19    20    1
     8    20    21    1
     9     4     5   ar
    10     5     6   ar
    11     6     7   ar
    12     7     8   ar
    13     8     9   ar
    14     9    10   ar
    15    10    11   ar
    16    11    12   ar
    17    12    13    1
    18    12    14   ar
    19    14    15   ar
    20     7     2   ar
    21    15     9   ar
    22    21    17    1
    23    15     6   ar
    24     3    16    1
    25    21    22    1
@<TRIPOS>MOLECULE
*****
 22 25 0 0 0
SMALL
GASTEIGER

@<TRIPOS>ATOM
      1 O          62.5357   89.6609   14.7015 O.2     1  UNL1       -0.2638
      2 C          62.6968   89.9535   13.2392 C.ar    1  UNL1        0.2947
      3 N          61.8843   89.1985   12.2294 N.ar    1  UNL1       -0.3062
      4 C          62.0455   89.4910   10.7670 C.ar    1  UNL1        0.1338
      5 N          63.0192   90.5385   10.3145 N.ar    1  UNL1       -0.2279
      6 C          63.8317   91.2934   11.3244 C.ar    1  UNL1        0.1247
      7 C          63.6706   91.0009   12.7867 C.ar    1  UNL1        0.2184
      8 O          64.6016   91.9002   13.5446 O.2     1  UNL1       -0.4471
      9 C          65.3382   92.7485   12.5507 C.ar    1  UNL1        0.1471
     10 C          66.3806   93.8140   12.7179 C.ar    1  UNL1        0.0384
     11 C          66.9473   94.5044   11.5128 C.ar    1  UNL1        0.0145
     12 C          66.4715   94.1294   10.1406 C.ar    1  UNL1        0.0579
     13 CL         67.0382   94.8199    8.9356 Cl      1  UNL1       -0.0822
     14 C          65.4290   93.0639    9.9734 C.ar    1  UNL1        0.0160
     15 C          64.8624   92.3735   11.1785 C.ar    1  UNL1        0.0562
     16 H          61.2452   88.5110   12.5263 H       1  UNL1        0.1702
     17 C          61.2329   88.7361    9.7571 C.3     1  UNL1        0.1116
     18 C          61.2432   87.2505    9.5499 C.3     1  UNL1        0.0249
     19 C          60.2841   86.9304    8.4419 C.3     1  UNL1        0.0189
     20 C          59.6810   88.2182    7.9643 C.3     1  UNL1        0.0689
     21 N          60.2674   89.3341    8.7772 N.3     1  UNL1       -0.2926
     22 H          59.5261   89.8248    9.2773 H       1  UNL1        0.1236
@<TRIPOS>BOND
     1     1     2    2
     2     2     3   ar
     3     3     4   ar
     4    17     4    1
     5    17    18    1
     6    18    19    1
     7    19    20    1
     8    20    21    1
     9     4     5   ar
    10     5     6   ar
    11     6     7   ar
    12     7     8   ar
    13     8     9   ar
    14     9    10   ar
    15    10    11   ar
    16    11    12   ar
    17    12    13    1
    18    12    14   ar
    19    14    15   ar
    20     7     2   ar
    21    15     9   ar
    22    21    17    1
    23    15     6   ar
    24     3    16    1
    25    21    22    1
@<TRIPOS>MOLECULE
*****
 22 25 0 0 0
SMALL
GASTEIGER

@<TRIPOS>ATOM
      1 O          60.9687   86.6237    8.6753 O.2     1  UNL1       -0.2638
      2 C          61.6472   86.4536   10.0022 C.ar    1  UNL1        0.2947
      3 N          61.7358   85.0944   10.6305 N.ar    1  UNL1       -0.3062
      4 C          62.4143   84.9243   11.9574 C.ar    1  UNL1        0.1338
      5 N          63.0043   86.1134   12.6560 N.ar    1  UNL1       -0.2279
      6 C          62.9157   87.4726   12.0278 C.ar    1  UNL1        0.1247
      7 C          62.2372   87.6427   10.7009 C.ar    1  UNL1        0.2184
      8 O          62.3028   89.0945   10.3295 O.2     1  UNL1       -0.4471
      9 C          63.0218   89.8217   11.4269 C.ar    1  UNL1        0.1471
     10 C          63.3806   91.2671   11.6060 C.ar    1  UNL1        0.0384
     11 C          64.1182   91.7100   12.8347 C.ar    1  UNL1        0.0145
     12 C          64.4970   90.7076   13.8843 C.ar    1  UNL1        0.0579
     13 CL         65.2346   91.1506   15.1130 Cl      1  UNL1       -0.0822
     14 C          64.1382   89.2622   13.7052 C.ar    1  UNL1        0.0160
     15 C          63.4007   88.8192   12.4765 C.ar    1  UNL1        0.0562
     16 H          61.3486   84.3140   10.1719 H       1  UNL1        0.1702
     17 C          62.5030   83.5651   12.5857 C.3     1  UNL1        0.1116
     18 C          62.6741   82.2659   11.8557 C.3     1  UNL1        0.0249
     19 C          62.7129   81.1643   12.8731 C.3     1  UNL1        0.0189
     20 C          62.5658   81.7827   14.2317 C.3     1  UNL1        0.0689
     21 N          62.4360   83.2664   14.0541 N.3     1  UNL1       -0.2926
     22 H          63.1977   83.7410   14.5389 H       1  UNL1        0.1236
@<TRIPOS>BOND
     1     1     2    2
     2     2     3   ar
     3     3     4   ar
     4    17     4    1
     5    17    18    1
     6    18    19    1
     7    19    20    1
     8    20    21    1
     9     4     5   ar
    10     5     6   ar
    11     6     7   ar
    12     7     8   ar
    13     8     9   ar
    14     9    10   ar
    15    10    11   ar
    16    11    12   ar
    17    12    13    1
    18    12    14   ar
    19    14    15   ar
    20     7     2   ar
    21    15     9   ar
    22    21    17    1
    23    15     6   ar
    24     3    16    1
    25    21    22    1
@<TRIPOS>MOLECULE
*****
 22 25 0 0 0
SMALL
GASTEIGER

@<TRIPOS>ATOM
      1 O          63.4803   84.5940   12.9534 O.2     1  UNL1       -0.2638
      2 C          63.1585   86.0196   12.6154 C.ar    1  UNL1        0.2947
      3 N          63.6677   87.1299   13.4859 N.ar    1  UNL1       -0.3062
      4 C          63.3460   88.5555   13.1479 C.ar    1  UNL1        0.1338
      5 N          62.5151   88.8707   11.9394 N.ar    1  UNL1       -0.2279
      6 C          62.0060   87.7603   11.0689 C.ar    1  UNL1        0.1247
      7 C          62.3277   86.3347   11.4069 C.ar    1  UNL1        0.2184
      8 O          61.6914   85.4576   10.3698 O.2     1  UNL1       -0.4471
      9 C          60.9764   86.3410    9.3908 C.ar    1  UNL1        0.1471
     10 C          60.1734   86.0334    8.1618 C.ar    1  UNL1        0.0384
     11 C          59.5649   87.1490    7.3649 C.ar    1  UNL1        0.0145
     12 C          59.7594   88.5721    7.7970 C.ar    1  UNL1        0.0579
     13 CL         59.1508   89.6878    6.9999 Cl      1  UNL1       -0.0822
     14 C          60.5623   88.8798    9.0260 C.ar    1  UNL1        0.0160
     15 C          61.1709   87.7642    9.8229 C.ar    1  UNL1        0.0562
     16 H          64.2130   86.9231   14.2790 H       1  UNL1        0.1702
     17 C          63.8551   89.6660   14.0184 C.3     1  UNL1        0.1116
     18 C          65.0445   90.5345   13.7340 C.3     1  UNL1        0.0249
     19 C          65.1887   91.5082   14.8659 C.3     1  UNL1        0.0189
     20 C          64.0884   91.2414   15.8498 C.3     1  UNL1        0.0689
     21 N          63.2642   90.1029   15.3260 N.3     1  UNL1       -0.2926
     22 H          62.3012   90.4085   15.1858 H       1  UNL1        0.1236
@<TRIPOS>BOND
     1     1     2    2
     2     2     3   ar
     3     3     4   ar
     4    17     4    1
     5    17    18    1
     6    18    19    1
     7    19    20    1
     8    20    21    1
     9     4     5   ar
    10     5     6   ar
    11     6     7   ar
    12     7     8   ar
    13     8     9   ar
    14     9    10   ar
    15    10    11   ar
    16    11    12   ar
    17    12    13    1
    18    12    14   ar
    19    14    15   ar
    20     7     2   ar
    21    15     9   ar
    22    21    17    1
    23    15     6   ar
    24     3    16    1
    25    21    22    1
@<TRIPOS>MOLECULE
*****
 22 25 0 0 0
SMALL
GASTEIGER

@<TRIPOS>ATOM
      1 O          63.7113   88.1192   13.9450 O.2     1  UNL1       -0.2638
      2 C          63.5120   89.0706   12.8026 C.ar    1  UNL1        0.2947
      3 N          64.3079   90.3403   12.7366 N.ar    1  UNL1       -0.3062
      4 C          64.1086   91.2917   11.5942 C.ar    1  UNL1        0.1338
      5 N          63.1135   90.9734   10.5178 N.ar    1  UNL1       -0.2279
      6 C          62.3177   89.7037   10.5839 C.ar    1  UNL1        0.1247
      7 C          62.5169   88.7523   11.7263 C.ar    1  UNL1        0.2184
      8 O          61.5951   87.5863   11.5246 O.2     1  UNL1       -0.4471
      9 C          60.8261   87.8171   10.2576 C.ar    1  UNL1        0.1471
     10 C          59.7769   87.0048    9.5581 C.ar    1  UNL1        0.0384
     11 C          59.1743   87.5010    8.2773 C.ar    1  UNL1        0.0145
     12 C          59.6209   88.8097    7.6959 C.ar    1  UNL1        0.0579
     13 CL         59.0183   89.3059    6.4150 Cl      1  UNL1       -0.0822
     14 C          60.6701   89.6221    8.3953 C.ar    1  UNL1        0.0160
     15 C          61.2727   89.1258    9.6762 C.ar    1  UNL1        0.0562
     16 H          64.9610   90.5492   13.4430 H       1  UNL1        0.1702
     17 C          64.9045   92.5615   11.5280 C.3     1  UNL1        0.1116
     18 C          65.7342   93.1406   12.6354 C.3     1  UNL1        0.0249
     19 C          66.3529   94.4121   12.1347 C.3     1  UNL1        0.0189
     20 C          65.9055   94.6188   10.7180 C.3     1  UNL1        0.0689
     21 N          65.0104   93.4751   10.3431 N.3     1  UNL1       -0.2926
     22 H          65.4075   92.9699    9.5509 H       1  UNL1        0.1236
@<TRIPOS>BOND
     1     1     2    2
     2     2     3   ar
     3     3     4   ar
     4    17     4    1
     5    17    18    1
     6    18    19    1
     7    19    20    1
     8    20    21    1
     9     4     5   ar
    10     5     6   ar
    11     6     7   ar
    12     7     8   ar
    13     8     9   ar
    14     9    10   ar
    15    10    11   ar
    16    11    12   ar
    17    12    13    1
    18    12    14   ar
    19    14    15   ar
    20     7     2   ar
    21    15     9   ar
    22    21    17    1
    23    15     6   ar
    24     3    16    1
    25    21    22    1
@<TRIPOS>MOLECULE
*****
 22 25 0 0 0
SMALL
GASTEIGER

@<TRIPOS>ATOM
      1 O          63.5082   91.1980   12.3686 O.2     1  UNL1       -0.2638
      2 C          62.9515   89.8952   11.8759 C.ar    1  UNL1        0.2947
      3 N          62.0312   89.8728   10.6916 N.ar    1  UNL1       -0.3062
      4 C          61.4746   88.5700   10.1988 C.ar    1  UNL1        0.1338
      5 N          61.8382   87.2895   10.8904 N.ar    1  UNL1       -0.2279
      6 C          62.7584   87.3119   12.0747 C.ar    1  UNL1        0.1247
      7 C          63.3151   88.6147   12.5675 C.ar    1  UNL1        0.2184
      8 O          64.1920   88.3265   13.7498 O.2     1  UNL1       -0.4471
      9 C          64.1774   86.8455   13.9877 C.ar    1  UNL1        0.1471
     10 C          64.8563   85.9870   15.0133 C.ar    1  UNL1        0.0384
     11 C          64.6492   84.5014   15.0037 C.ar    1  UNL1        0.0145
     12 C          63.7632   83.8744   13.9685 C.ar    1  UNL1        0.0579
     13 CL         63.5561   82.3887   13.9589 Cl      1  UNL1       -0.0822
     14 C          63.0842   84.7329   12.9429 C.ar    1  UNL1        0.0160
     15 C          63.2913   86.2185   12.9525 C.ar    1  UNL1        0.0562
     16 H          61.7926   90.7132   10.2376 H       1  UNL1        0.1702
     17 C          60.5543   88.5476    9.0144 C.3     1  UNL1        0.1116
     18 C          59.6493   87.4174    8.6225 C.3     1  UNL1        0.0249
     19 C          58.9131   87.8227    7.3800 C.3     1  UNL1        0.0189
     20 C          59.3632   89.2033    7.0041 C.3     1  UNL1        0.0689
     21 N          60.3775   89.6513    8.0142 N.3     1  UNL1       -0.2926
     22 H          60.0489   90.4949    8.4841 H       1  UNL1        0.1236
@<TRIPOS>BOND
     1     1     2    2
     2     2     3   ar
     3     3     4   ar
     4    17     4    1
     5    17    18    1
     6    18    19    1
     7    19    20    1
     8    20    21    1
     9     4     5   ar
    10     5     6   ar
    11     6     7   ar
    12     7     8   ar
    13     8     9   ar
    14     9    10   ar
    15    10    11   ar
    16    11    12   ar
    17    12    13    1
    18    12    14   ar
    19    14    15   ar
    20     7     2   ar
    21    15     9   ar
    22    21    17    1
    23    15     6   ar
    24     3    16    1
    25    21    22    1
