@<TRIPOS>MOLECULE
*****
 24 27 0 0 0
SMALL
GASTEIGER

@<TRIPOS>ATOM
      1 N          63.0729   89.9987   11.8282 N.ar    1  UNL1       -0.3164
      2 C          62.3714   90.9429   10.8973 C.ar    1  UNL1        0.0779
      3 C          61.4846   90.1337    9.9980 C.ar    1  UNL1        0.0392
      4 C          61.6380   88.6895   10.3729 C.ar    1  UNL1        0.0985
      5 N          61.0107   87.4396    9.8305 N.ar    1  UNL1       -0.2423
      6 C          61.3650   86.1063   10.4193 C.ar    1  UNL1        0.0989
      7 C          62.3466   86.0228   11.5504 C.ar    1  UNL1        0.0206
      8 C          62.9739   87.2727   12.0928 C.ar    1  UNL1        0.0203
      9 C          62.6196   88.6060   11.5041 C.ar    1  UNL1        0.0782
     10 C          62.7009   84.6894   12.1391 C.ar    1  UNL1        0.0014
     11 C          63.0106   84.5740   13.6022 C.ar    1  UNL1        0.0023
     12 C          63.3649   83.2405   14.1910 C.ar    1  UNL1        0.0293
     13 C          63.4095   82.0226   13.3165 C.ar    1  UNL1        0.1361
     14 F          63.7637   80.6892   13.9052 F       1  UNL1       -0.2045
     15 C          63.0998   82.1381   11.8533 C.ar    1  UNL1        0.0056
     16 C          63.1444   80.9202   10.9789 C.3     1  UNL1        0.0334
     17 C          62.7455   83.4715   11.2647 C.ar    1  UNL1       -0.0020
     18 C          64.0552   90.3802   12.8957 C.3     1  UNL1        0.1937
     19 C          62.9430   87.9648   17.4575 C.3     1  UNL1        0.0967
     20 C          63.2142   89.0291   16.4359 C.ar    1  UNL1        0.2267
     21 N          63.2217   90.5083   16.6844 N.ar    1  UNL1       -0.1116
     22 N          63.5376   91.1945   15.3885 N.ar    1  UNL1       -0.1096
     23 C          63.7254   90.1393   14.3391 C.ar    1  UNL1        0.2489
     24 O          63.5255   88.8010   14.9864 O.2     1  UNL1       -0.4213
@<TRIPOS>BOND
     1    19    20    1
     2    20    21   ar
     3    21    22   ar
     4    22    23   ar
     5    23    18    1
     6    18     1    1
     7     1     2   ar
     8     2     3   ar
     9     3     4   ar
    10     4     5   ar
    11     5     6   ar
    12     6     7   ar
    13     7    10    1
    14    10    11   ar
    15    11    12   ar
    16    12    13   ar
    17    13    14    1
    18    13    15   ar
    19    15    16    1
    20    15    17   ar
    21     7     8   ar
    22     8     9   ar
    23    23    24   ar
    24    24    20   ar
    25     9     1   ar
    26     9     4   ar
    27    17    10   ar
@<TRIPOS>MOLECULE
*****
 24 27 0 0 0
SMALL
GASTEIGER

@<TRIPOS>ATOM
      1 N          66.0624   93.1707   13.2443 N.ar    1  UNL1       -0.3164
      2 C          66.8942   93.1113   14.4912 C.ar    1  UNL1        0.0779
      3 C          66.5549   91.8419   15.2147 C.ar    1  UNL1        0.0392
      4 C          65.5135   91.1167   14.4149 C.ar    1  UNL1        0.0985
      5 N          64.8030   89.8146   14.6382 N.ar    1  UNL1       -0.2423
      6 C          63.7882   89.3338   13.6438 C.ar    1  UNL1        0.0989
      7 C          63.4839   90.1551   12.4260 C.ar    1  UNL1        0.0206
      8 C          64.1943   91.4571   12.2027 C.ar    1  UNL1        0.0203
      9 C          65.2091   91.9379   13.1972 C.ar    1  UNL1        0.0782
     10 C          62.4690   89.6742   11.4316 C.ar    1  UNL1        0.0014
     11 C          61.3016   90.5442   11.0709 C.ar    1  UNL1        0.0023
     12 C          60.2867   90.0634   10.0765 C.ar    1  UNL1        0.0293
     13 C          60.4394   88.7125    9.4427 C.ar    1  UNL1        0.1361
     14 F          59.4246   88.2316    8.4482 F       1  UNL1       -0.2045
     15 C          61.6069   87.8424    9.8033 C.ar    1  UNL1        0.0056
     16 C          61.7595   86.4915    9.1695 C.3     1  UNL1        0.0334
     17 C          62.6217   88.3233   10.7978 C.ar    1  UNL1       -0.0020
     18 C          66.0808   94.2698   12.2237 C.3     1  UNL1        0.1937
     19 C          69.0256   92.1563    8.3840 C.3     1  UNL1        0.0967
     20 C          68.1985   93.1218    9.1801 C.ar    1  UNL1        0.2267
     21 N          67.8433   94.5216    8.7747 N.ar    1  UNL1       -0.1116
     22 N          67.0068   95.1220    9.8654 N.ar    1  UNL1       -0.1096
     23 C          66.8450   94.0933   10.9450 C.ar    1  UNL1        0.2489
     24 O          67.5815   92.8571   10.5215 O.2     1  UNL1       -0.4213
@<TRIPOS>BOND
     1    19    20    1
     2    20    21   ar
     3    21    22   ar
     4    22    23   ar
     5    23    18    1
     6    18     1    1
     7     1     2   ar
     8     2     3   ar
     9     3     4   ar
    10     4     5   ar
    11     5     6   ar
    12     6     7   ar
    13     7    10    1
    14    10    11   ar
    15    11    12   ar
    16    12    13   ar
    17    13    14    1
    18    13    15   ar
    19    15    16    1
    20    15    17   ar
    21     7     8   ar
    22     8     9   ar
    23    23    24   ar
    24    24    20   ar
    25     9     1   ar
    26     9     4   ar
    27    17    10   ar
@<TRIPOS>MOLECULE
*****
 24 27 0 0 0
SMALL
GASTEIGER

@<TRIPOS>ATOM
      1 N          63.0337   82.8975   13.5995 N.ar    1  UNL1       -0.3164
      2 C          63.9650   81.7235   13.5341 C.ar    1  UNL1        0.0779
      3 C          64.5258   81.6536   12.1447 C.ar    1  UNL1        0.0392
      4 C          63.9410   82.7844   11.3513 C.ar    1  UNL1        0.0985
      5 N          64.1292   83.2133    9.9264 N.ar    1  UNL1       -0.2423
      6 C          63.3951   84.4111    9.4006 C.ar    1  UNL1        0.0989
      7 C          62.4730   85.1799   10.2997 C.ar    1  UNL1        0.0206
      8 C          62.2848   84.7510   11.7247 C.ar    1  UNL1        0.0203
      9 C          63.0189   83.5532   12.2505 C.ar    1  UNL1        0.0782
     10 C          61.7389   86.3777    9.7739 C.ar    1  UNL1        0.0014
     11 C          60.6402   86.2020    8.7679 C.ar    1  UNL1        0.0023
     12 C          59.9061   87.3998    8.2421 C.ar    1  UNL1        0.0293
     13 C          60.2708   88.7733    8.7222 C.ar    1  UNL1        0.1361
     14 F          59.5368   89.9711    8.1964 F       1  UNL1       -0.2045
     15 C          61.3696   88.9490    9.7282 C.ar    1  UNL1        0.0056
     16 C          61.7343   90.3225   10.2083 C.3     1  UNL1        0.0334
     17 C          62.1036   87.7512   10.2540 C.ar    1  UNL1       -0.0020
     18 C          62.2540   83.3385   14.8027 C.3     1  UNL1        0.1937
     19 C          62.6789   87.0608   18.5237 C.3     1  UNL1        0.0967
     20 C          62.8340   86.3057   17.2369 C.ar    1  UNL1        0.2267
     21 N          63.6271   86.7502   16.0439 N.ar    1  UNL1       -0.1116
     22 N          63.5065   85.6928   14.9869 N.ar    1  UNL1       -0.1096
     23 C          62.6387   84.5948   15.5266 C.ar    1  UNL1        0.2489
     24 O          62.2230   84.9736   16.9172 O.2     1  UNL1       -0.4213
@<TRIPOS>BOND
     1    19    20    1
     2    20    21   ar
     3    21    22   ar
     4    22    23   ar
     5    23    18    1
     6    18     1    1
     7     1     2   ar
     8     2     3   ar
     9     3     4   ar
    10     4     5   ar
    11     5     6   ar
    12     6     7   ar
    13     7    10    1
    14    10    11   ar
    15    11    12   ar
    16    12    13   ar
    17    13    14    1
    18    13    15   ar
    19    15    16    1
    20    15    17   ar
    21     7     8   ar
    22     8     9   ar
    23    23    24   ar
    24    24    20   ar
    25     9     1   ar
    26     9     4   ar
    27    17    10   ar
@<TRIPOS>MOLECULE
*****
 24 27 0 0 0
SMALL
GASTEIGER

@<TRIPOS>ATOM
      1 N          63.6835   85.5989   15.6286 N.ar    1  UNL1       -0.3164
      2 C          63.1386   85.1936   16.9661 C.ar    1  UNL1        0.0779
      3 C          62.8160   86.4418   17.7327 C.ar    1  UNL1        0.0392
      4 C          63.1615   87.6186   16.8690 C.ar    1  UNL1        0.0985
      5 N          63.0572   89.0972   17.0987 N.ar    1  UNL1       -0.2423
      6 C          63.4890   90.0548   16.0280 C.ar    1  UNL1        0.0989
      7 C          64.0251   89.5338   14.7276 C.ar    1  UNL1        0.0206
      8 C          64.1294   88.0552   14.4979 C.ar    1  UNL1        0.0203
      9 C          63.6976   87.0976   15.5686 C.ar    1  UNL1        0.0782
     10 C          64.4569   90.4915   13.6568 C.ar    1  UNL1        0.0014
     11 C          65.6432   91.3817   13.8807 C.ar    1  UNL1        0.0023
     12 C          66.0751   92.3394   12.8100 C.ar    1  UNL1        0.0293
     13 C          65.3205   92.4068   11.5153 C.ar    1  UNL1        0.1361
     14 F          65.7522   93.3644   10.4446 F       1  UNL1       -0.2045
     15 C          64.1341   91.5166   11.2915 C.ar    1  UNL1        0.0056
     16 C          63.3795   91.5840    9.9968 C.3     1  UNL1        0.0334
     17 C          63.7024   90.5589   12.3622 C.ar    1  UNL1       -0.0020
     18 C          64.1350   84.6687   14.5418 C.3     1  UNL1        0.1937
     19 C          60.5837   80.7838   14.1204 C.3     1  UNL1        0.0967
     20 C          61.8858   81.5215   14.2220 C.ar    1  UNL1        0.2267
     21 N          63.2522   80.9026   14.2212 N.ar    1  UNL1       -0.1116
     22 N          64.2610   82.0062   14.3409 N.ar    1  UNL1       -0.1096
     23 C          63.5181   83.3072   14.4157 C.ar    1  UNL1        0.2489
     24 O          62.0502   83.0076   14.3422 O.2     1  UNL1       -0.4213
@<TRIPOS>BOND
     1    19    20    1
     2    20    21   ar
     3    21    22   ar
     4    22    23   ar
     5    23    18    1
     6    18     1    1
     7     1     2   ar
     8     2     3   ar
     9     3     4   ar
    10     4     5   ar
    11     5     6   ar
    12     6     7   ar
    13     7    10    1
    14    10    11   ar
    15    11    12   ar
    16    12    13   ar
    17    13    14    1
    18    13    15   ar
    19    15    16    1
    20    15    17   ar
    21     7     8   ar
    22     8     9   ar
    23    23    24   ar
    24    24    20   ar
    25     9     1   ar
    26     9     4   ar
    27    17    10   ar
@<TRIPOS>MOLECULE
*****
 24 27 0 0 0
SMALL
GASTEIGER

@<TRIPOS>ATOM
      1 N          63.7828   85.6639   15.6738 N.ar    1  UNL1       -0.3164
      2 C          63.1727   85.2594   16.9830 C.ar    1  UNL1        0.0779
      3 C          62.7823   86.5075   17.7177 C.ar    1  UNL1        0.0392
      4 C          63.1512   87.6834   16.8625 C.ar    1  UNL1        0.0985
      5 N          63.0039   89.1615   17.0709 N.ar    1  UNL1       -0.2423
      6 C          63.4750   90.1182   16.0160 C.ar    1  UNL1        0.0989
      7 C          64.0933   89.5968   14.7528 C.ar    1  UNL1        0.0206
      8 C          64.2406   88.1187   14.5444 C.ar    1  UNL1        0.0203
      9 C          63.7695   87.1620   15.5993 C.ar    1  UNL1        0.0782
     10 C          64.5644   90.5535   13.6979 C.ar    1  UNL1        0.0014
     11 C          65.7747   91.4047   13.9439 C.ar    1  UNL1        0.0023
     12 C          66.2458   92.3615   12.8890 C.ar    1  UNL1        0.0293
     13 C          65.5065   92.4670   11.5881 C.ar    1  UNL1        0.1361
     14 F          65.9775   93.4237   10.5333 F       1  UNL1       -0.2045
     15 C          64.2961   91.6158   11.3422 C.ar    1  UNL1        0.0056
     16 C          63.5568   91.7213   10.0413 C.3     1  UNL1        0.0334
     17 C          63.8251   90.6591   12.3970 C.ar    1  UNL1       -0.0020
     18 C          64.3131   84.7336   14.6234 C.3     1  UNL1        0.1937
     19 C          61.3195   85.9446   10.4456 C.3     1  UNL1        0.0967
     20 C          62.3068   85.2580   11.3423 C.ar    1  UNL1        0.2267
     21 N          63.1189   84.0457   10.9949 N.ar    1  UNL1       -0.1116
     22 N          63.9693   83.7017   12.1816 N.ar    1  UNL1       -0.1096
     23 C          63.6828   84.7014   13.2625 C.ar    1  UNL1        0.2489
     24 O          62.6553   85.6633   12.7438 O.2     1  UNL1       -0.4213
@<TRIPOS>BOND
     1    19    20    1
     2    20    21   ar
     3    21    22   ar
     4    22    23   ar
     5    23    18    1
     6    18     1    1
     7     1     2   ar
     8     2     3   ar
     9     3     4   ar
    10     4     5   ar
    11     5     6   ar
    12     6     7   ar
    13     7    10    1
    14    10    11   ar
    15    11    12   ar
    16    12    13   ar
    17    13    14    1
    18    13    15   ar
    19    15    16    1
    20    15    17   ar
    21     7     8   ar
    22     8     9   ar
    23    23    24   ar
    24    24    20   ar
    25     9     1   ar
    26     9     4   ar
    27    17    10   ar
@<TRIPOS>MOLECULE
*****
 24 27 0 0 0
SMALL
GASTEIGER

@<TRIPOS>ATOM
      1 N          61.5953   86.1855    8.5497 N.ar    1  UNL1       -0.3164
      2 C          60.2913   85.9858    7.8357 C.ar    1  UNL1        0.0779
      3 C          59.4268   87.1813    8.1066 C.ar    1  UNL1        0.0392
      4 C          60.1965   88.1198    8.9881 C.ar    1  UNL1        0.0985
      5 N          59.8502   89.4552    9.5767 N.ar    1  UNL1       -0.2423
      6 C          60.8440   90.1752   10.4392 C.ar    1  UNL1        0.0989
      7 C          62.1842   89.5597   10.7130 C.ar    1  UNL1        0.0206
      8 C          62.5306   88.2243   10.1243 C.ar    1  UNL1        0.0203
      9 C          61.5367   87.5043    9.2619 C.ar    1  UNL1        0.0782
     10 C          63.1781   90.2798   11.5755 C.ar    1  UNL1        0.0014
     11 C          63.3943   89.8441   12.9944 C.ar    1  UNL1        0.0023
     12 C          64.3882   90.5641   13.8569 C.ar    1  UNL1        0.0293
     13 C          65.1658   91.7198   13.3004 C.ar    1  UNL1        0.1361
     14 F          66.1597   92.4398   14.1628 F       1  UNL1       -0.2045
     15 C          64.9496   92.1555   11.8814 C.ar    1  UNL1        0.0056
     16 C          65.7272   93.3112   11.3248 C.3     1  UNL1        0.0334
     17 C          63.9557   91.4354   11.0189 C.ar    1  UNL1       -0.0020
     18 C          62.7545   85.2334    8.5512 C.3     1  UNL1        0.1937
     19 C          62.9549   83.7345   13.6103 C.3     1  UNL1        0.0967
     20 C          63.2255   83.8260   12.1377 C.ar    1  UNL1        0.2267
     21 N          64.2071   82.9929   11.3682 N.ar    1  UNL1       -0.1116
     22 N          64.1502   83.4186    9.9310 N.ar    1  UNL1       -0.1096
     23 C          63.1333   84.5150    9.8123 C.ar    1  UNL1        0.2489
     24 O          62.5618   84.7667   11.1761 O.2     1  UNL1       -0.4213
@<TRIPOS>BOND
     1    19    20    1
     2    20    21   ar
     3    21    22   ar
     4    22    23   ar
     5    23    18    1
     6    18     1    1
     7     1     2   ar
     8     2     3   ar
     9     3     4   ar
    10     4     5   ar
    11     5     6   ar
    12     6     7   ar
    13     7    10    1
    14    10    11   ar
    15    11    12   ar
    16    12    13   ar
    17    13    14    1
    18    13    15   ar
    19    15    16    1
    20    15    17   ar
    21     7     8   ar
    22     8     9   ar
    23    23    24   ar
    24    24    20   ar
    25     9     1   ar
    26     9     4   ar
    27    17    10   ar
@<TRIPOS>MOLECULE
*****
 24 27 0 0 0
SMALL
GASTEIGER

@<TRIPOS>ATOM
      1 N          65.4900   92.6247   12.9451 N.ar    1  UNL1       -0.3164
      2 C          66.2195   92.8605   14.2344 C.ar    1  UNL1        0.0779
      3 C          65.9853   91.6749   15.1230 C.ar    1  UNL1        0.0392
      4 C          65.1110   90.7064   14.3829 C.ar    1  UNL1        0.0985
      5 N          64.5542   89.3659   14.7608 N.ar    1  UNL1       -0.2423
      6 C          63.6911   88.6124   13.7927 C.ar    1  UNL1        0.0989
      7 C          63.3850   89.1993   12.4467 C.ar    1  UNL1        0.0206
      8 C          63.9419   90.5399   12.0688 C.ar    1  UNL1        0.0203
      9 C          64.8049   91.2934   13.0369 C.ar    1  UNL1        0.0782
     10 C          62.5219   88.4457   11.4785 C.ar    1  UNL1        0.0014
     11 C          62.4490   86.9491   11.5465 C.ar    1  UNL1        0.0023
     12 C          61.5859   86.1955   10.5784 C.ar    1  UNL1        0.0293
     13 C          60.7958   86.9386    9.5423 C.ar    1  UNL1        0.1361
     14 F          59.9327   86.1850    8.5742 F       1  UNL1       -0.2045
     15 C          60.8688   88.4353    9.4743 C.ar    1  UNL1        0.0056
     16 C          60.0787   89.1784    8.4382 C.3     1  UNL1        0.0334
     17 C          61.7318   89.1888   10.4424 C.ar    1  UNL1       -0.0020
     18 C          65.4521   93.5565   11.7703 C.3     1  UNL1        0.1937
     19 C          69.1490   91.9875    8.3420 C.3     1  UNL1        0.0967
     20 C          68.2857   92.8513    9.2130 C.ar    1  UNL1        0.2267
     21 N          68.3779   94.3426    9.3439 N.ar    1  UNL1       -0.1116
     22 N          67.3278   94.7884   10.3177 N.ar    1  UNL1       -0.1096
     23 C          66.5864   93.5724   10.7888 C.ar    1  UNL1        0.2489
     24 O          67.1784   92.3752   10.1060 O.2     1  UNL1       -0.4213
@<TRIPOS>BOND
     1    19    20    1
     2    20    21   ar
     3    21    22   ar
     4    22    23   ar
     5    23    18    1
     6    18     1    1
     7     1     2   ar
     8     2     3   ar
     9     3     4   ar
    10     4     5   ar
    11     5     6   ar
    12     6     7   ar
    13     7    10    1
    14    10    11   ar
    15    11    12   ar
    16    12    13   ar
    17    13    14    1
    18    13    15   ar
    19    15    16    1
    20    15    17   ar
    21     7     8   ar
    22     8     9   ar
    23    23    24   ar
    24    24    20   ar
    25     9     1   ar
    26     9     4   ar
    27    17    10   ar
@<TRIPOS>MOLECULE
*****
 24 27 0 0 0
SMALL
GASTEIGER

@<TRIPOS>ATOM
      1 N          63.9367   85.4205   15.1291 N.ar    1  UNL1       -0.3164
      2 C          63.1880   84.7566   16.2464 C.ar    1  UNL1        0.0779
      3 C          62.6442   85.8299   17.1421 C.ar    1  UNL1        0.0392
      4 C          63.0568   87.1573   16.5782 C.ar    1  UNL1        0.0985
      5 N          62.8084   88.5636   17.0370 N.ar    1  UNL1       -0.2423
      6 C          63.3588   89.7169   16.2515 C.ar    1  UNL1        0.0989
      7 C          64.1576   89.4639   15.0074 C.ar    1  UNL1        0.0206
      8 C          64.4060   88.0576   14.5487 C.ar    1  UNL1        0.0203
      9 C          63.8557   86.9043   15.3341 C.ar    1  UNL1        0.0782
     10 C          64.7080   90.6173   14.2220 C.ar    1  UNL1        0.0014
     11 C          64.2359   90.8630   12.8196 C.ar    1  UNL1        0.0023
     12 C          64.7862   92.0164   12.0342 C.ar    1  UNL1        0.0293
     13 C          65.8087   92.9240   12.6512 C.ar    1  UNL1        0.1361
     14 F          66.3591   94.0774   11.8658 F       1  UNL1       -0.2045
     15 C          66.2809   92.6783   14.0536 C.ar    1  UNL1        0.0056
     16 C          67.3034   93.5859   14.6707 C.3     1  UNL1        0.0334
     17 C          65.7305   91.5249   14.8390 C.ar    1  UNL1       -0.0020
     18 C          64.6426   84.7232   14.0041 C.3     1  UNL1        0.1937
     19 C          62.3958   80.0348   13.0812 C.3     1  UNL1        0.0967
     20 C          62.9529   81.4133   12.8835 C.ar    1  UNL1        0.2267
     21 N          62.9968   82.1693   11.5887 N.ar    1  UNL1       -0.1116
     22 N          63.6350   83.5011   11.8508 N.ar    1  UNL1       -0.1096
     23 C          63.9857   83.5684   13.3077 C.ar    1  UNL1        0.2489
     24 O          63.5641   82.2780   13.9459 O.2     1  UNL1       -0.4213
@<TRIPOS>BOND
     1    19    20    1
     2    20    21   ar
     3    21    22   ar
     4    22    23   ar
     5    23    18    1
     6    18     1    1
     7     1     2   ar
     8     2     3   ar
     9     3     4   ar
    10     4     5   ar
    11     5     6   ar
    12     6     7   ar
    13     7    10    1
    14    10    11   ar
    15    11    12   ar
    16    12    13   ar
    17    13    14    1
    18    13    15   ar
    19    15    16    1
    20    15    17   ar
    21     7     8   ar
    22     8     9   ar
    23    23    24   ar
    24    24    20   ar
    25     9     1   ar
    26     9     4   ar
    27    17    10   ar
@<TRIPOS>MOLECULE
*****
 24 27 0 0 0
SMALL
GASTEIGER

@<TRIPOS>ATOM
      1 N          62.9927   89.9619   11.9529 N.ar    1  UNL1       -0.3164
      2 C          62.2967   90.9025   11.0144 C.ar    1  UNL1        0.0779
      3 C          61.4607   90.0853   10.0746 C.ar    1  UNL1        0.0392
      4 C          61.6400   88.6397   10.4322 C.ar    1  UNL1        0.0985
      5 N          61.0635   87.3829    9.8507 N.ar    1  UNL1       -0.2423
      6 C          61.4338   86.0499   10.4302 C.ar    1  UNL1        0.0989
      7 C          62.3807   85.9736   11.5911 C.ar    1  UNL1        0.0206
      8 C          62.9572   87.2303   12.1725 C.ar    1  UNL1        0.0203
      9 C          62.5869   88.5634   11.5931 C.ar    1  UNL1        0.0782
     10 C          62.7510   84.6404   12.1706 C.ar    1  UNL1        0.0014
     11 C          63.1248   84.5299   13.6190 C.ar    1  UNL1        0.0023
     12 C          63.4951   83.1968   14.1984 C.ar    1  UNL1        0.0293
     13 C          63.4915   81.9742   13.3294 C.ar    1  UNL1        0.1361
     14 F          63.8618   80.6411   13.9088 F       1  UNL1       -0.2045
     15 C          63.1177   82.0847   11.8809 C.ar    1  UNL1        0.0056
     16 C          63.1141   80.8622   11.0118 C.3     1  UNL1        0.0334
     17 C          62.7474   83.4178   11.3015 C.ar    1  UNL1       -0.0020
     18 C          63.9300   90.3514   13.0573 C.3     1  UNL1        0.1937
     19 C          66.4596   94.5337   11.0597 C.3     1  UNL1        0.0967
     20 C          65.9031   93.5311   12.0267 C.ar    1  UNL1        0.2267
     21 N          66.0716   93.5557   13.5169 N.ar    1  UNL1       -0.1116
     22 N          65.3530   92.3677   14.0844 N.ar    1  UNL1       -0.1096
     23 C          64.7404   91.6087   12.9449 C.ar    1  UNL1        0.2489
     24 O          65.0803   92.3277   11.6731 O.2     1  UNL1       -0.4213
@<TRIPOS>BOND
     1    19    20    1
     2    20    21   ar
     3    21    22   ar
     4    22    23   ar
     5    23    18    1
     6    18     1    1
     7     1     2   ar
     8     2     3   ar
     9     3     4   ar
    10     4     5   ar
    11     5     6   ar
    12     6     7   ar
    13     7    10    1
    14    10    11   ar
    15    11    12   ar
    16    12    13   ar
    17    13    14    1
    18    13    15   ar
    19    15    16    1
    20    15    17   ar
    21     7     8   ar
    22     8     9   ar
    23    23    24   ar
    24    24    20   ar
    25     9     1   ar
    26     9     4   ar
    27    17    10   ar
