@<TRIPOS>MOLECULE
*****
 38 42 0 0 0
SMALL
GASTEIGER

@<TRIPOS>ATOM
      1 C          60.7699   88.2931    9.3024 C.ar    1  UNL1        0.1350
      2 C          60.4030   89.3290    8.2816 C.ar    1  UNL1        0.0535
      3 C          59.4314   88.9942    7.1889 C.ar    1  UNL1        0.0859
      4 N          58.8268   87.6233    7.1171 N.ar    1  UNL1       -0.2239
      5 C          59.1937   86.5873    8.1379 C.ar    1  UNL1        0.2000
      6 N          60.1653   86.9222    9.2305 N.ar    1  UNL1       -0.2090
      7 N          63.8419   87.9154   13.5803 N.3     1  UNL1       -0.3205
      8 C          63.1535   88.4543   12.3615 C.3     1  UNL1        0.0766
      9 C          62.1782   87.7102   11.4983 C.3     1  UNL1        0.1079
     10 N          61.7415   88.6279   10.3951 N.pl3   1  UNL1       -0.2914
     11 C          62.4469   89.9392   10.5764 C.3     1  UNL1        0.0980
     12 C          63.3196   89.8319   11.7917 C.3     1  UNL1        0.0602
     13 H          63.5457   86.9526   13.7404 H       1  UNL1        0.1189
     14 H          63.5963   88.4857   14.3896 H       1  UNL1        0.1189
     15 C          64.2032   90.9126   12.3408 C.ar    1  UNL1        0.0103
     16 C          64.6062   90.8900   13.7854 C.ar    1  UNL1        0.0300
     17 C          65.4898   91.9706   14.3345 C.ar    1  UNL1        0.1672
     18 F          65.8928   91.9481   15.7792 F       1  UNL1       -0.2018
     19 C          65.9704   93.0737   13.4390 C.ar    1  UNL1        0.1696
     20 F          66.8540   94.1544   13.9881 F       1  UNL1       -0.2017
     21 C          65.5674   93.0963   11.9942 C.ar    1  UNL1        0.0612
     22 C          64.6838   92.0157   11.4452 C.ar    1  UNL1        0.1386
     23 F          64.2807   92.0383   10.0005 F       1  UNL1       -0.2044
     24 C          59.0644   90.0302    6.1681 C.ar    1  UNL1        0.0191
     25 C          57.6343   90.4544    6.0106 C.ar    1  UNL1        0.0016
     26 C          57.2673   91.4903    4.9898 C.ar    1  UNL1        0.0014
     27 C          58.3305   92.1021    4.1264 C.ar    1  UNL1        0.0199
     28 C          59.7606   91.6779    4.2838 C.ar    1  UNL1        0.1222
     29 C          60.1276   90.6419    5.3047 C.ar    1  UNL1        0.0214
     30 S          60.8237   92.2897    3.4205 S.O2    1  UNL1        0.0634
     31 O          61.8623   91.4521    4.1058 O.2     1  UNL1       -0.1528
     32 O          59.7852   93.1273    2.7351 O.2     1  UNL1       -0.1528
     33 N          61.8869   92.9015    2.5571 N.3     1  UNL1       -0.1504
     34 C          61.5905   94.1427    1.7686 C.3     1  UNL1        0.1279
     35 C          62.6537   94.7545    0.9053 C.3     1  UNL1        0.1613
     36 O          64.0132   94.1250    0.8303 O.3     1  UNL1       -0.3507
     37 C          64.3095   92.8838    1.6187 C.3     1  UNL1        0.1613
     38 C          63.2463   92.2720    2.4821 C.3     1  UNL1        0.1279
@<TRIPOS>BOND
     1     7     8    1
     2     8     9    1
     3     9    10    1
     4    10     1    1
     5     1     2   ar
     6     2     3   ar
     7     3    24    1
     8    24    25   ar
     9    25    26   ar
    10    26    27   ar
    11    27    28   ar
    12    28    30    1
    13    30    31    2
    14    30    32    2
    15    30    33    1
    16    33    34    1
    17    34    35    1
    18    35    36    1
    19    36    37    1
    20    37    38    1
    21    28    29   ar
    22     3     4   ar
    23     4     5   ar
    24     5     6   ar
    25    10    11    1
    26    11    12    1
    27    12    15    1
    28    15    16   ar
    29    16    17   ar
    30    17    18    1
    31    17    19   ar
    32    19    20    1
    33    19    21   ar
    34    21    22   ar
    35    22    23    1
    36    12     8    1
    37    22    15   ar
    38     6     1   ar
    39    29    24   ar
    40    38    33    1
    41     7    13    1
    42     7    14    1
@<TRIPOS>MOLECULE
*****
 38 42 0 0 0
SMALL
GASTEIGER

@<TRIPOS>ATOM
      1 C          59.9357   91.6428    4.1571 C.ar    1  UNL1        0.1350
      2 C          60.2814   90.6628    5.2388 C.ar    1  UNL1        0.0535
      3 C          59.2161   90.1702    6.1729 C.ar    1  UNL1        0.0859
      4 N          57.8052   90.6576    6.0253 N.ar    1  UNL1       -0.2239
      5 C          57.4595   91.6376    4.9436 C.ar    1  UNL1        0.2000
      6 N          58.5248   92.1302    4.0095 N.ar    1  UNL1       -0.2090
      7 N          64.6407   92.5655    1.9452 N.3     1  UNL1       -0.3205
      8 C          63.1636   92.5595    2.2063 C.3     1  UNL1        0.0766
      9 C          62.4740   91.8846    3.3547 C.3     1  UNL1        0.1079
     10 N          61.0009   92.1354    3.2230 N.pl3   1  UNL1       -0.2914
     11 C          60.7802   92.9654    1.9931 C.3     1  UNL1        0.0980
     12 C          62.1168   93.2275    1.3648 C.3     1  UNL1        0.0602
     13 H          65.1170   92.0348    2.6745 H       1  UNL1        0.1189
     14 H          64.9822   93.5266    1.9460 H       1  UNL1        0.1189
     15 C          62.3633   94.0186    0.1144 C.ar    1  UNL1        0.0103
     16 C          61.9332   93.4734   -1.2151 C.ar    1  UNL1        0.0300
     17 C          62.1797   94.2646   -2.4655 C.ar    1  UNL1        0.1672
     18 F          61.7496   93.7193   -3.7950 F       1  UNL1       -0.2018
     19 C          62.8563   95.6009   -2.3862 C.ar    1  UNL1        0.1696
     20 F          63.1028   96.3920   -3.6365 F       1  UNL1       -0.2017
     21 C          63.2864   96.1462   -1.0566 C.ar    1  UNL1        0.0612
     22 C          63.0399   95.3550    0.1936 C.ar    1  UNL1        0.1386
     23 F          63.4700   95.9003    1.5233 F       1  UNL1       -0.2044
     24 C          59.5618   89.1901    7.2546 C.ar    1  UNL1        0.0191
     25 C          58.9753   87.8097    7.2314 C.ar    1  UNL1        0.0016
     26 C          59.3209   86.8297    8.3130 C.ar    1  UNL1        0.0014
     27 C          60.2530   87.2300    9.4181 C.ar    1  UNL1        0.0199
     28 C          60.8395   88.6105    9.4413 C.ar    1  UNL1        0.1222
     29 C          60.4938   89.5905    8.3596 C.ar    1  UNL1        0.0214
     30 S          61.7715   89.0108   10.5463 S.O2    1  UNL1        0.0634
     31 O          61.3196   87.8312   11.3550 O.2     1  UNL1       -0.1528
     32 O          62.2235   90.1905    9.7375 O.2     1  UNL1       -0.1528
     33 N          62.7036   89.4112   11.6512 N.3     1  UNL1       -0.1504
     34 C          63.2046   88.3814   12.6200 C.3     1  UNL1        0.1279
     35 C          64.1366   88.7817   13.7249 C.3     1  UNL1        0.1613
     36 O          64.5678   90.2120   13.8611 O.3     1  UNL1       -0.3507
     37 C          64.0669   91.2418   12.8924 C.3     1  UNL1        0.1613
     38 C          63.1348   90.8415   11.7874 C.3     1  UNL1        0.1279
@<TRIPOS>BOND
     1     7     8    1
     2     8     9    1
     3     9    10    1
     4    10     1    1
     5     1     2   ar
     6     2     3   ar
     7     3    24    1
     8    24    25   ar
     9    25    26   ar
    10    26    27   ar
    11    27    28   ar
    12    28    30    1
    13    30    31    2
    14    30    32    2
    15    30    33    1
    16    33    34    1
    17    34    35    1
    18    35    36    1
    19    36    37    1
    20    37    38    1
    21    28    29   ar
    22     3     4   ar
    23     4     5   ar
    24     5     6   ar
    25    10    11    1
    26    11    12    1
    27    12    15    1
    28    15    16   ar
    29    16    17   ar
    30    17    18    1
    31    17    19   ar
    32    19    20    1
    33    19    21   ar
    34    21    22   ar
    35    22    23    1
    36    12     8    1
    37    22    15   ar
    38     6     1   ar
    39    29    24   ar
    40    38    33    1
    41     7    13    1
    42     7    14    1
@<TRIPOS>MOLECULE
*****
 38 42 0 0 0
SMALL
GASTEIGER

@<TRIPOS>ATOM
      1 C          60.8004   88.7416    9.5413 C.ar    1  UNL1        0.1350
      2 C          60.3698   89.6994    8.4703 C.ar    1  UNL1        0.0535
      3 C          59.6723   89.1891    7.2442 C.ar    1  UNL1        0.0859
      4 N          59.4056   87.7212    7.0893 N.ar    1  UNL1       -0.2239
      5 C          59.8362   86.7635    8.1604 C.ar    1  UNL1        0.2000
      6 N          60.5337   87.2737    9.3864 N.ar    1  UNL1       -0.2090
      7 N          61.9449   89.8366   14.5785 N.3     1  UNL1       -0.3205
      8 C          62.0240   89.7551   13.0828 C.3     1  UNL1        0.0766
      9 C          61.0225   89.0958   12.1815 C.3     1  UNL1        0.1079
     10 N          61.4979   89.2519   10.7675 N.pl3   1  UNL1       -0.2914
     11 C          62.7933   90.0077   10.7947 C.3     1  UNL1        0.0980
     12 C          63.1184   90.3187   12.2257 C.3     1  UNL1        0.0602
     13 H          61.0965   89.3705   14.9000 H       1  UNL1        0.1189
     14 H          61.9246   90.8153   14.8651 H       1  UNL1        0.1189
     15 C          64.3260   91.0628   12.7138 C.ar    1  UNL1        0.0103
     16 C          64.7326   92.3473   12.0547 C.ar    1  UNL1        0.0300
     17 C          65.9401   93.0914   12.5428 C.ar    1  UNL1        0.1672
     18 F          66.3467   94.3759   11.8837 F       1  UNL1       -0.2018
     19 C          66.7410   92.5508   13.6901 C.ar    1  UNL1        0.1696
     20 F          67.9485   93.2948   14.1782 F       1  UNL1       -0.2017
     21 C          66.3344   91.2661   14.3493 C.ar    1  UNL1        0.0612
     22 C          65.1269   90.5222   13.8611 C.ar    1  UNL1        0.1386
     23 F          64.7202   89.2375   14.5203 F       1  UNL1       -0.2044
     24 C          59.2416   90.1469    6.1731 C.ar    1  UNL1        0.0191
     25 C          57.7874   90.4690    5.9956 C.ar    1  UNL1        0.0016
     26 C          57.3566   91.4267    4.9245 C.ar    1  UNL1        0.0014
     27 C          58.3801   92.0623    4.0308 C.ar    1  UNL1        0.0199
     28 C          59.8343   91.7401    4.2083 C.ar    1  UNL1        0.1222
     29 C          60.2650   90.7824    5.2795 C.ar    1  UNL1        0.0214
     30 S          60.8578   92.3756    3.3147 S.O2    1  UNL1        0.0634
     31 O          59.7772   93.1681    2.6407 O.2     1  UNL1       -0.1528
     32 O          61.9383   91.5831    3.9886 O.2     1  UNL1       -0.1528
     33 N          61.8812   93.0111    2.4210 N.3     1  UNL1       -0.1504
     34 C          63.2618   92.4314    2.3309 C.3     1  UNL1        0.1279
     35 C          64.2852   93.0669    1.4373 C.3     1  UNL1        0.1613
     36 O          63.9282   94.2821    0.6337 O.3     1  UNL1       -0.3507
     37 C          62.5478   94.8619    0.7238 C.3     1  UNL1        0.1613
     38 C          61.5242   94.2264    1.6175 C.3     1  UNL1        0.1279
@<TRIPOS>BOND
     1     7     8    1
     2     8     9    1
     3     9    10    1
     4    10     1    1
     5     1     2   ar
     6     2     3   ar
     7     3    24    1
     8    24    25   ar
     9    25    26   ar
    10    26    27   ar
    11    27    28   ar
    12    28    30    1
    13    30    31    2
    14    30    32    2
    15    30    33    1
    16    33    34    1
    17    34    35    1
    18    35    36    1
    19    36    37    1
    20    37    38    1
    21    28    29   ar
    22     3     4   ar
    23     4     5   ar
    24     5     6   ar
    25    10    11    1
    26    11    12    1
    27    12    15    1
    28    15    16   ar
    29    16    17   ar
    30    17    18    1
    31    17    19   ar
    32    19    20    1
    33    19    21   ar
    34    21    22   ar
    35    22    23    1
    36    12     8    1
    37    22    15   ar
    38     6     1   ar
    39    29    24   ar
    40    38    33    1
    41     7    13    1
    42     7    14    1
@<TRIPOS>MOLECULE
*****
 38 42 0 0 0
SMALL
GASTEIGER

@<TRIPOS>ATOM
      1 C          63.5101   88.4729   14.4001 C.ar    1  UNL1        0.1350
      2 C          64.4278   89.6174   14.0874 C.ar    1  UNL1        0.0535
      3 C          64.6936   90.6699   15.1226 C.ar    1  UNL1        0.0859
      4 N          64.0417   90.5779   16.4704 N.ar    1  UNL1       -0.2239
      5 C          63.1240   89.4334   16.7830 C.ar    1  UNL1        0.2000
      6 N          62.8582   88.3809   15.7479 N.ar    1  UNL1       -0.2090
      7 N          62.2639   86.1105    9.8452 N.3     1  UNL1       -0.3205
      8 C          62.6714   86.3345   11.2713 C.3     1  UNL1        0.0766
      9 C          62.8231   87.6654   11.9463 C.3     1  UNL1        0.1079
     10 N          63.2442   87.4203   13.3650 N.pl3   1  UNL1       -0.2914
     11 C          63.3527   85.9379   13.5668 C.3     1  UNL1        0.0980
     12 C          62.9987   85.2668   12.2728 C.3     1  UNL1        0.0602
     13 H          62.1020   87.0101    9.3925 H       1  UNL1        0.1189
     14 H          61.4071   85.5577    9.8192 H       1  UNL1        0.1189
     15 C          62.9760   83.7878   12.0241 C.ar    1  UNL1        0.0103
     16 C          62.2896   82.8742   12.9958 C.ar    1  UNL1        0.0300
     17 C          62.2669   81.3952   12.7470 C.ar    1  UNL1        0.1672
     18 F          61.5805   80.4817   13.7188 F       1  UNL1       -0.2018
     19 C          62.9306   80.8297   11.5266 C.ar    1  UNL1        0.1696
     20 F          62.9079   79.3507   11.2778 F       1  UNL1       -0.2017
     21 C          63.6170   81.7433   10.5547 C.ar    1  UNL1        0.0612
     22 C          63.6397   83.2222   10.8036 C.ar    1  UNL1        0.1386
     23 F          64.3261   84.1359    9.8318 F       1  UNL1       -0.2044
     24 C          65.6114   91.8145   14.8099 C.ar    1  UNL1        0.0191
     25 C          66.5803   92.3033   15.8454 C.ar    1  UNL1        0.0016
     26 C          67.4980   93.4479   15.5328 C.ar    1  UNL1        0.0014
     27 C          67.4468   94.1037   14.1847 C.ar    1  UNL1        0.0199
     28 C          66.4779   93.6149   13.1492 C.ar    1  UNL1        0.1222
     29 C          65.5601   92.4703   13.4618 C.ar    1  UNL1        0.0214
     30 S          66.4267   94.2706   11.8011 S.O2    1  UNL1        0.0634
     31 O          66.0920   95.5804   12.4510 O.2     1  UNL1       -0.1528
     32 O          66.7613   92.9608   11.1513 O.2     1  UNL1       -0.1528
     33 N          66.3754   94.9264   10.4530 N.3     1  UNL1       -0.1504
     34 C          65.5161   96.1373   10.2402 C.3     1  UNL1        0.1279
     35 C          65.4649   96.7931    8.8921 C.3     1  UNL1        0.1613
     36 O          66.2729   96.2379    7.7569 O.3     1  UNL1       -0.3507
     37 C          67.1322   95.0270    7.9696 C.3     1  UNL1        0.1613
     38 C          67.1835   94.3712    9.3178 C.3     1  UNL1        0.1279
@<TRIPOS>BOND
     1     7     8    1
     2     8     9    1
     3     9    10    1
     4    10     1    1
     5     1     2   ar
     6     2     3   ar
     7     3    24    1
     8    24    25   ar
     9    25    26   ar
    10    26    27   ar
    11    27    28   ar
    12    28    30    1
    13    30    31    2
    14    30    32    2
    15    30    33    1
    16    33    34    1
    17    34    35    1
    18    35    36    1
    19    36    37    1
    20    37    38    1
    21    28    29   ar
    22     3     4   ar
    23     4     5   ar
    24     5     6   ar
    25    10    11    1
    26    11    12    1
    27    12    15    1
    28    15    16   ar
    29    16    17   ar
    30    17    18    1
    31    17    19   ar
    32    19    20    1
    33    19    21   ar
    34    21    22   ar
    35    22    23    1
    36    12     8    1
    37    22    15   ar
    38     6     1   ar
    39    29    24   ar
    40    38    33    1
    41     7    13    1
    42     7    14    1
@<TRIPOS>MOLECULE
*****
 38 42 0 0 0
SMALL
GASTEIGER

@<TRIPOS>ATOM
      1 C          63.5273   88.3191   14.4765 C.ar    1  UNL1        0.1350
      2 C          64.4430   89.4668   14.1695 C.ar    1  UNL1        0.0535
      3 C          64.6349   90.5628   15.1754 C.ar    1  UNL1        0.0859
      4 N          63.9111   90.5112   16.4882 N.ar    1  UNL1       -0.2239
      5 C          62.9955   89.3635   16.7952 C.ar    1  UNL1        0.2000
      6 N          62.8036   88.2674   15.7893 N.ar    1  UNL1       -0.2090
      7 N          63.4094   83.5559   12.2006 N.3     1  UNL1       -0.3205
      8 C          63.2812   85.0336   12.4245 C.3     1  UNL1        0.0766
      9 C          63.6128   85.7654   13.6912 C.3     1  UNL1        0.1079
     10 N          63.3354   87.2230   13.4706 N.pl3   1  UNL1       -0.2914
     11 C          62.8324   87.3919   12.0676 C.3     1  UNL1        0.0980
     12 C          62.7989   86.0389   11.4211 C.3     1  UNL1        0.0602
     13 H          63.7610   83.1127   13.0493 H       1  UNL1        0.1189
     14 H          64.0586   83.3835   11.4330 H       1  UNL1        0.1189
     15 C          62.3601   85.7430   10.0175 C.ar    1  UNL1        0.0103
     16 C          61.0673   86.3023    9.5022 C.ar    1  UNL1        0.0300
     17 C          60.6285   86.0064    8.0987 C.ar    1  UNL1        0.1672
     18 F          59.3356   86.5658    7.5834 F       1  UNL1       -0.2018
     19 C          61.4826   85.1512    7.2105 C.ar    1  UNL1        0.1696
     20 F          61.0439   84.8553    5.8069 F       1  UNL1       -0.2017
     21 C          62.7756   84.5918    7.7258 C.ar    1  UNL1        0.0612
     22 C          63.2142   84.8877    9.1293 C.ar    1  UNL1        0.1386
     23 F          64.5072   84.3283    9.6446 F       1  UNL1       -0.2044
     24 C          65.5506   91.7106   14.8685 C.ar    1  UNL1        0.0191
     25 C          66.4912   92.2214   15.9194 C.ar    1  UNL1        0.0016
     26 C          67.4069   93.3691   15.6126 C.ar    1  UNL1        0.0014
     27 C          67.3820   94.0062   14.2547 C.ar    1  UNL1        0.0199
     28 C          66.4414   93.4954   13.2038 C.ar    1  UNL1        0.1222
     29 C          65.5257   92.3476   13.5107 C.ar    1  UNL1        0.0214
     30 S          66.4165   94.1324   11.8460 S.O2    1  UNL1        0.0634
     31 O          66.6650   92.7949   11.2140 O.2     1  UNL1       -0.1528
     32 O          66.1680   95.4698   12.4780 O.2     1  UNL1       -0.1528
     33 N          66.3916   94.7693   10.4882 N.3     1  UNL1       -0.1504
     34 C          67.2071   94.1875    9.3717 C.3     1  UNL1        0.1279
     35 C          67.1822   94.8245    8.0140 C.3     1  UNL1        0.1613
     36 O          66.3418   96.0433    7.7726 O.3     1  UNL1       -0.3507
     37 C          65.5264   96.6251    8.8890 C.3     1  UNL1        0.1613
     38 C          65.5512   95.9881   10.2469 C.3     1  UNL1        0.1279
@<TRIPOS>BOND
     1     7     8    1
     2     8     9    1
     3     9    10    1
     4    10     1    1
     5     1     2   ar
     6     2     3   ar
     7     3    24    1
     8    24    25   ar
     9    25    26   ar
    10    26    27   ar
    11    27    28   ar
    12    28    30    1
    13    30    31    2
    14    30    32    2
    15    30    33    1
    16    33    34    1
    17    34    35    1
    18    35    36    1
    19    36    37    1
    20    37    38    1
    21    28    29   ar
    22     3     4   ar
    23     4     5   ar
    24     5     6   ar
    25    10    11    1
    26    11    12    1
    27    12    15    1
    28    15    16   ar
    29    16    17   ar
    30    17    18    1
    31    17    19   ar
    32    19    20    1
    33    19    21   ar
    34    21    22   ar
    35    22    23    1
    36    12     8    1
    37    22    15   ar
    38     6     1   ar
    39    29    24   ar
    40    38    33    1
    41     7    13    1
    42     7    14    1
@<TRIPOS>MOLECULE
*****
 38 42 0 0 0
SMALL
GASTEIGER

@<TRIPOS>ATOM
      1 C          61.9204   87.7977   10.9949 C.ar    1  UNL1        0.1350
      2 C          62.6587   88.9908   11.5254 C.ar    1  UNL1        0.0535
      3 C          63.5169   88.8588   12.7484 C.ar    1  UNL1        0.0859
      4 N          63.6370   87.5337   13.4410 N.ar    1  UNL1       -0.2239
      5 C          62.8987   86.3406   12.9106 C.ar    1  UNL1        0.2000
      6 N          62.0404   86.4726   11.6875 N.ar    1  UNL1       -0.2090
      7 N          58.4464   86.7447    7.1604 N.3     1  UNL1       -0.3205
      8 C          59.4652   87.4456    8.0093 C.3     1  UNL1        0.0766
      9 C          60.1110   86.8956    9.2464 C.3     1  UNL1        0.1079
     10 N          61.0620   87.9297    9.7718 N.pl3   1  UNL1       -0.2914
     11 C          61.0041   89.1189    8.8595 C.3     1  UNL1        0.0980
     12 C          60.0172   88.8198    7.7702 C.3     1  UNL1        0.0602
     13 H          58.2526   85.8234    7.5529 H       1  UNL1        0.1189
     14 H          58.8073   86.6412    6.2120 H       1  UNL1        0.1189
     15 C          59.6472   89.7342    6.6402 C.ar    1  UNL1        0.0103
     16 C          60.7211   90.3872    5.8215 C.ar    1  UNL1        0.0300
     17 C          60.3512   91.3017    4.6914 C.ar    1  UNL1        0.1672
     18 F          61.4251   91.9547    3.8727 F       1  UNL1       -0.2018
     19 C          58.9073   91.5630    4.3802 C.ar    1  UNL1        0.1696
     20 F          58.5374   92.4775    3.2501 F       1  UNL1       -0.2017
     21 C          57.8334   90.9100    5.1989 C.ar    1  UNL1        0.0612
     22 C          58.2034   89.9956    6.3288 C.ar    1  UNL1        0.1386
     23 F          57.1294   89.3425    7.1476 F       1  UNL1       -0.2044
     24 C          64.2553   90.0519   13.2789 C.ar    1  UNL1        0.0191
     25 C          64.4698   90.2055   14.7556 C.ar    1  UNL1        0.0016
     26 C          65.2081   91.3986   15.2861 C.ar    1  UNL1        0.0014
     27 C          65.7319   92.4381   14.3400 C.ar    1  UNL1        0.0199
     28 C          65.5174   92.2845   12.8634 C.ar    1  UNL1        0.1222
     29 C          64.7790   91.0914   12.3329 C.ar    1  UNL1        0.0214
     30 S          66.0411   93.3240   11.9173 S.O2    1  UNL1        0.0634
     31 O          64.8408   93.1295   11.0391 O.2     1  UNL1       -0.1528
     32 O          67.2414   93.5185   12.7955 O.2     1  UNL1       -0.1528
     33 N          66.5649   94.3635   10.9712 N.3     1  UNL1       -0.1504
     34 C          67.3565   93.9500    9.7660 C.3     1  UNL1        0.1279
     35 C          67.8803   94.9895    8.8199 C.3     1  UNL1        0.1613
     36 O          67.6124   96.4425    9.0790 O.3     1  UNL1       -0.3507
     37 C          66.8208   96.8560   10.2841 C.3     1  UNL1        0.1613
     38 C          66.2970   95.8165   11.2302 C.3     1  UNL1        0.1279
@<TRIPOS>BOND
     1     7     8    1
     2     8     9    1
     3     9    10    1
     4    10     1    1
     5     1     2   ar
     6     2     3   ar
     7     3    24    1
     8    24    25   ar
     9    25    26   ar
    10    26    27   ar
    11    27    28   ar
    12    28    30    1
    13    30    31    2
    14    30    32    2
    15    30    33    1
    16    33    34    1
    17    34    35    1
    18    35    36    1
    19    36    37    1
    20    37    38    1
    21    28    29   ar
    22     3     4   ar
    23     4     5   ar
    24     5     6   ar
    25    10    11    1
    26    11    12    1
    27    12    15    1
    28    15    16   ar
    29    16    17   ar
    30    17    18    1
    31    17    19   ar
    32    19    20    1
    33    19    21   ar
    34    21    22   ar
    35    22    23    1
    36    12     8    1
    37    22    15   ar
    38     6     1   ar
    39    29    24   ar
    40    38    33    1
    41     7    13    1
    42     7    14    1
@<TRIPOS>MOLECULE
*****
 38 42 0 0 0
SMALL
GASTEIGER

@<TRIPOS>ATOM
      1 C          62.6712   90.3773   10.9483 C.ar    1  UNL1        0.1350
      2 C          62.9977   88.9691   10.5480 C.ar    1  UNL1        0.0535
      3 C          61.9194   88.0706   10.0189 C.ar    1  UNL1        0.0859
      4 N          60.5146   88.5804    9.8901 N.ar    1  UNL1       -0.2239
      5 C          60.1880   89.9885   10.2905 C.ar    1  UNL1        0.2000
      6 N          61.2663   90.8870   10.8196 N.ar    1  UNL1       -0.2090
      7 N          65.9465   94.4747   11.5518 N.3     1  UNL1       -0.3205
      8 C          65.2550   93.1593   11.7548 C.3     1  UNL1        0.0766
      9 C          64.1344   92.6141   10.9199 C.3     1  UNL1        0.1079
     10 N          63.7495   91.2758   11.4775 N.pl3   1  UNL1       -0.2914
     11 C          64.6321   90.9939   12.6571 C.3     1  UNL1        0.0980
     12 C          65.5626   92.1579   12.8285 C.3     1  UNL1        0.0602
     13 H          65.5374   94.9537   10.7495 H       1  UNL1        0.1189
     14 H          66.9394   94.3143   11.3820 H       1  UNL1        0.1189
     15 C          66.6157   92.2962   13.8876 C.ar    1  UNL1        0.0103
     16 C          68.0667   92.2927   13.5075 C.ar    1  UNL1        0.0300
     17 C          69.1199   92.4311   14.5666 C.ar    1  UNL1        0.1672
     18 F          70.5709   92.4276   14.1865 F       1  UNL1       -0.2018
     19 C          68.7220   92.5729   16.0058 C.ar    1  UNL1        0.1696
     20 F          69.7751   92.7113   17.0650 F       1  UNL1       -0.2017
     21 C          67.2709   92.5764   16.3861 C.ar    1  UNL1        0.0612
     22 C          66.2179   92.4381   15.3269 C.ar    1  UNL1        0.1386
     23 F          64.7667   92.4416   15.7071 F       1  UNL1       -0.2044
     24 C          62.2460   86.6624    9.6185 C.ar    1  UNL1        0.0191
     25 C          62.3951   86.3105    8.1680 C.ar    1  UNL1        0.0016
     26 C          62.7216   84.9023    7.7675 C.ar    1  UNL1        0.0014
     27 C          62.8990   83.8459    8.8176 C.ar    1  UNL1        0.0199
     28 C          62.7499   84.1978   10.2681 C.ar    1  UNL1        0.1222
     29 C          62.4233   85.6061   10.6685 C.ar    1  UNL1        0.0214
     30 S          62.9273   83.1415   11.3182 S.O2    1  UNL1        0.0634
     31 O          63.4836   82.2075   10.2847 O.2     1  UNL1       -0.1528
     32 O          62.3709   84.0755   12.3517 O.2     1  UNL1       -0.1528
     33 N          63.1046   82.0852   12.3683 N.3     1  UNL1       -0.1504
     34 C          63.8462   82.4020   13.6331 C.3     1  UNL1        0.1279
     35 C          64.0236   81.3457   14.6832 C.3     1  UNL1        0.1613
     36 O          63.4594   79.9725   14.4685 O.3     1  UNL1       -0.3507
     37 C          62.7179   79.6557   13.2037 C.3     1  UNL1        0.1613
     38 C          62.5405   80.7120   12.1536 C.3     1  UNL1        0.1279
@<TRIPOS>BOND
     1     7     8    1
     2     8     9    1
     3     9    10    1
     4    10     1    1
     5     1     2   ar
     6     2     3   ar
     7     3    24    1
     8    24    25   ar
     9    25    26   ar
    10    26    27   ar
    11    27    28   ar
    12    28    30    1
    13    30    31    2
    14    30    32    2
    15    30    33    1
    16    33    34    1
    17    34    35    1
    18    35    36    1
    19    36    37    1
    20    37    38    1
    21    28    29   ar
    22     3     4   ar
    23     4     5   ar
    24     5     6   ar
    25    10    11    1
    26    11    12    1
    27    12    15    1
    28    15    16   ar
    29    16    17   ar
    30    17    18    1
    31    17    19   ar
    32    19    20    1
    33    19    21   ar
    34    21    22   ar
    35    22    23    1
    36    12     8    1
    37    22    15   ar
    38     6     1   ar
    39    29    24   ar
    40    38    33    1
    41     7    13    1
    42     7    14    1
@<TRIPOS>MOLECULE
*****
 38 42 0 0 0
SMALL
GASTEIGER

@<TRIPOS>ATOM
      1 C          62.1200   87.2752   11.7754 C.ar    1  UNL1        0.1350
      2 C          63.0762   88.4300   11.7299 C.ar    1  UNL1        0.0535
      3 C          62.5982   89.7828   11.2925 C.ar    1  UNL1        0.0859
      4 N          61.1640   89.9808   10.9005 N.ar    1  UNL1       -0.2239
      5 C          60.2077   88.8261   10.9459 C.ar    1  UNL1        0.2000
      6 N          60.6857   87.4733   11.3834 N.ar    1  UNL1       -0.2090
      7 N          64.5998   83.4404   14.4261 N.3     1  UNL1       -0.3205
      8 C          63.7378   84.1597   13.4313 C.3     1  UNL1        0.0766
      9 C          63.5331   85.6436   13.3521 C.3     1  UNL1        0.1079
     10 N          62.5980   85.9224   12.2128 N.pl3   1  UNL1       -0.2914
     11 C          62.2249   84.6108   11.5878 C.3     1  UNL1        0.0980
     12 C          62.9293   83.5215   12.3408 C.3     1  UNL1        0.0602
     13 H          65.0343   84.1183   15.0523 H       1  UNL1        0.1189
     14 H          65.3249   82.9190   13.9334 H       1  UNL1        0.1189
     15 C          62.8408   82.0518   12.0538 C.ar    1  UNL1        0.0103
     16 C          63.1964   81.5306   10.6930 C.ar    1  UNL1        0.0300
     17 C          63.1079   80.0610   10.4060 C.ar    1  UNL1        0.1672
     18 F          63.4635   79.5398    9.0452 F       1  UNL1       -0.2018
     19 C          62.6638   79.1126   11.4798 C.ar    1  UNL1        0.1696
     20 F          62.5753   77.6430   11.1928 F       1  UNL1       -0.2017
     21 C          62.3081   79.6338   12.8408 C.ar    1  UNL1        0.0612
     22 C          62.3967   81.1033   13.1277 C.ar    1  UNL1        0.1386
     23 F          62.0410   81.6246   14.4886 F       1  UNL1       -0.2044
     24 C          63.5545   90.9376   11.2470 C.ar    1  UNL1        0.0191
     25 C          63.5430   91.8752   10.0762 C.ar    1  UNL1        0.0016
     26 C          64.4991   93.0300   10.0307 C.ar    1  UNL1        0.0014
     27 C          65.4669   93.2472   11.1560 C.ar    1  UNL1        0.0199
     28 C          65.4785   92.3096   12.3268 C.ar    1  UNL1        0.1222
     29 C          64.5222   91.1548   12.3723 C.ar    1  UNL1        0.0214
     30 S          66.4462   92.5268   13.4521 S.O2    1  UNL1        0.0634
     31 O          67.5912   92.4052   12.4908 O.2     1  UNL1       -0.1528
     32 O          65.3011   92.6484   14.4133 O.2     1  UNL1       -0.1528
     33 N          67.4139   92.7440   14.5773 N.3     1  UNL1       -0.1504
     34 C          67.9062   91.5758   15.3793 C.3     1  UNL1        0.1279
     35 C          68.8739   91.7929   16.5045 C.3     1  UNL1        0.1613
     36 O          69.3494   93.1783   16.8280 O.3     1  UNL1       -0.3507
     37 C          68.8572   94.3465   16.0261 C.3     1  UNL1        0.1613
     38 C          67.8894   94.1294   14.9008 C.3     1  UNL1        0.1279
@<TRIPOS>BOND
     1     7     8    1
     2     8     9    1
     3     9    10    1
     4    10     1    1
     5     1     2   ar
     6     2     3   ar
     7     3    24    1
     8    24    25   ar
     9    25    26   ar
    10    26    27   ar
    11    27    28   ar
    12    28    30    1
    13    30    31    2
    14    30    32    2
    15    30    33    1
    16    33    34    1
    17    34    35    1
    18    35    36    1
    19    36    37    1
    20    37    38    1
    21    28    29   ar
    22     3     4   ar
    23     4     5   ar
    24     5     6   ar
    25    10    11    1
    26    11    12    1
    27    12    15    1
    28    15    16   ar
    29    16    17   ar
    30    17    18    1
    31    17    19   ar
    32    19    20    1
    33    19    21   ar
    34    21    22   ar
    35    22    23    1
    36    12     8    1
    37    22    15   ar
    38     6     1   ar
    39    29    24   ar
    40    38    33    1
    41     7    13    1
    42     7    14    1
@<TRIPOS>MOLECULE
*****
 38 42 0 0 0
SMALL
GASTEIGER

@<TRIPOS>ATOM
      1 C          59.9328   89.2973    7.7709 C.ar    1  UNL1        0.1350
      2 C          60.9196   89.8494    8.7565 C.ar    1  UNL1        0.0535
      3 C          61.2999   89.0478    9.9659 C.ar    1  UNL1        0.0859
      4 N          60.6936   87.6942   10.1897 N.ar    1  UNL1       -0.2239
      5 C          59.7069   87.1421    9.2040 C.ar    1  UNL1        0.2000
      6 N          59.3265   87.9437    7.9946 N.ar    1  UNL1       -0.2090
      7 N          57.0816   91.7961    4.0955 N.3     1  UNL1       -0.3205
      8 C          58.2418   91.2475    4.8720 C.3     1  UNL1        0.0766
      9 C          58.1555   90.4327    6.1284 C.3     1  UNL1        0.1079
     10 N          59.5524   90.0989    6.5614 N.pl3   1  UNL1       -0.2914
     11 C          60.5020   90.7075    5.5725 C.3     1  UNL1        0.0980
     12 C          59.6921   91.4173    4.5284 C.3     1  UNL1        0.0602
     13 H          56.2098   91.5303    4.5535 H       1  UNL1        0.1189
     14 H          57.0972   91.4179    3.1483 H       1  UNL1        0.1189
     15 C          60.2367   92.1656    3.3480 C.ar    1  UNL1        0.0103
     16 C          59.3235   93.0084    2.5079 C.ar    1  UNL1        0.0300
     17 C          59.8682   93.7567    1.3274 C.ar    1  UNL1        0.1672
     18 F          58.9550   94.5995    0.4873 F       1  UNL1       -0.2018
     19 C          61.3259   93.6622    0.9872 C.ar    1  UNL1        0.1696
     20 F          61.8706   94.4106   -0.1933 F       1  UNL1       -0.2017
     21 C          62.2392   92.8194    1.8273 C.ar    1  UNL1        0.0612
     22 C          61.6945   92.0712    3.0077 C.ar    1  UNL1        0.1386
     23 F          62.6078   91.2284    3.8479 F       1  UNL1       -0.2044
     24 C          62.2867   89.5998   10.9517 C.ar    1  UNL1        0.0191
     25 C          62.3641   89.0274   12.3360 C.ar    1  UNL1        0.0016
     26 C          63.3508   89.5794   13.3217 C.ar    1  UNL1        0.0014
     27 C          64.2602   90.7038   12.9231 C.ar    1  UNL1        0.0199
     28 C          64.1828   91.2762   11.5388 C.ar    1  UNL1        0.1222
     29 C          63.1960   90.7242   10.5531 C.ar    1  UNL1        0.0214
     30 S          65.0921   92.4005   11.1402 S.O2    1  UNL1        0.0634
     31 O          65.9598   92.1212   12.3314 O.2     1  UNL1       -0.1528
     32 O          64.2245   92.6799    9.9489 O.2     1  UNL1       -0.1528
     33 N          66.0015   93.5249   10.7416 N.3     1  UNL1       -0.1504
     34 C          67.1488   93.2673    9.8102 C.3     1  UNL1        0.1279
     35 C          68.0582   94.3917    9.4116 C.3     1  UNL1        0.1613
     36 O          67.8202   95.7736    9.9443 O.3     1  UNL1       -0.3507
     37 C          66.6729   96.0311   10.8756 C.3     1  UNL1        0.1613
     38 C          65.7635   94.9068   11.2742 C.3     1  UNL1        0.1279
@<TRIPOS>BOND
     1     7     8    1
     2     8     9    1
     3     9    10    1
     4    10     1    1
     5     1     2   ar
     6     2     3   ar
     7     3    24    1
     8    24    25   ar
     9    25    26   ar
    10    26    27   ar
    11    27    28   ar
    12    28    30    1
    13    30    31    2
    14    30    32    2
    15    30    33    1
    16    33    34    1
    17    34    35    1
    18    35    36    1
    19    36    37    1
    20    37    38    1
    21    28    29   ar
    22     3     4   ar
    23     4     5   ar
    24     5     6   ar
    25    10    11    1
    26    11    12    1
    27    12    15    1
    28    15    16   ar
    29    16    17   ar
    30    17    18    1
    31    17    19   ar
    32    19    20    1
    33    19    21   ar
    34    21    22   ar
    35    22    23    1
    36    12     8    1
    37    22    15   ar
    38     6     1   ar
    39    29    24   ar
    40    38    33    1
    41     7    13    1
    42     7    14    1
