@<TRIPOS>MOLECULE
*****
 29 32 0 0 0
SMALL
GASTEIGER

@<TRIPOS>ATOM
      1 C          61.8955   88.6641   11.0414 C.ar    1  UNL1       -0.0130
      2 C          62.7201   88.6773   12.2943 C.ar    1  UNL1       -0.0022
      3 C          63.6576   89.8170   12.5632 C.ar    1  UNL1        0.0188
      4 C          63.7704   90.9435   11.5794 C.ar    1  UNL1        0.0824
      5 C          62.9457   90.9304   10.3264 C.ar    1  UNL1        0.0188
      6 C          62.0083   89.7907   10.0574 C.ar    1  UNL1       -0.0022
      7 N          64.7078   92.0832   11.8484 N.ar    1  UNL1       -0.2341
      8 N          65.0702   93.1732   10.8838 N.ar    1  UNL1       -0.1617
      9 C          66.0337   94.0967   11.5685 C.ar    1  UNL1        0.1696
     10 C          66.2669   93.5774   12.9563 C.ar    1  UNL1        0.0148
     11 C          65.4474   92.3330   13.1293 C.ar    1  UNL1        0.0579
     12 C          65.4805   91.5880   14.4308 C.3     1  UNL1        0.0456
     13 C          66.3331   92.0875   15.5593 C.3     1  UNL1        0.0066
     14 C          67.1526   93.3319   15.3863 C.3     1  UNL1        0.0052
     15 C          67.1195   94.0768   14.0848 C.3     1  UNL1        0.0291
     16 C          66.6551   95.3239   10.9704 C.3     1  UNL1        0.4362
     17 F          67.2764   96.5513   10.3724 F       1  UNL1       -0.1644
     18 F          65.8267   96.1852   11.8771 F       1  UNL1       -0.1644
     19 F          67.4835   94.4628   10.0638 F       1  UNL1       -0.1644
     20 C          60.9581   87.5244   10.7724 C.3     1  UNL1        0.1113
     21 O          61.2955   85.5063    9.1713 O.2     1  UNL1       -0.2747
     22 C          61.5026   86.1517   10.5094 C.2     1  UNL1        0.2269
     23 N          62.2542   85.4243   11.5846 N.am    1  UNL1       -0.3057
     24 H          62.3901   85.8479   12.4629 H       1  UNL1        0.1494
     25 C          62.7986   84.0516   11.3217 C.3     1  UNL1        0.0716
     26 C          62.4369   82.8017   12.0681 C.3     1  UNL1        0.0196
     27 C          63.2152   81.6654   11.4739 C.3     1  UNL1        0.0017
     28 C          64.0579   82.2130   10.3604 C.3     1  UNL1        0.0017
     29 C          63.8004   83.6877   10.2663 C.3     1  UNL1        0.0196
@<TRIPOS>BOND
     1    21    22    2
     2    22    20    1
     3    20     1    1
     4     1     2   ar
     5     2     3   ar
     6     3     4   ar
     7     4     7    1
     8     7     8   ar
     9     8     9   ar
    10     9    16    1
    11    16    17    1
    12    16    18    1
    13    16    19    1
    14     9    10   ar
    15    10    11   ar
    16    11    12    1
    17    12    13    1
    18    13    14    1
    19    14    15    1
    20     4     5   ar
    21     5     6   ar
    22    22    23   am
    23    23    25    1
    24    25    26    1
    25    26    27    1
    26    27    28    1
    27    28    29    1
    28     6     1   ar
    29    29    25    1
    30    11     7   ar
    31    15    10    1
    32    23    24    1
@<TRIPOS>MOLECULE
*****
 29 32 0 0 0
SMALL
GASTEIGER

@<TRIPOS>ATOM
      1 C          63.1836   86.5239   15.9879 C.ar    1  UNL1       -0.0130
      2 C          62.9196   87.7970   16.7359 C.ar    1  UNL1       -0.0022
      3 C          63.5410   89.0814   16.2732 C.ar    1  UNL1        0.0188
      4 C          64.4265   89.0928   15.0626 C.ar    1  UNL1        0.0824
      5 C          64.6906   87.8197   14.3145 C.ar    1  UNL1        0.0188
      6 C          64.0691   86.5352   14.7772 C.ar    1  UNL1       -0.0022
      7 N          65.0480   90.3772   14.5999 N.ar    1  UNL1       -0.2341
      8 N          66.0066   91.2250   15.3824 N.ar    1  UNL1       -0.1617
      9 C          66.3709   92.4110   14.5396 C.ar    1  UNL1        0.1696
     10 C          65.6375   92.2964   13.2361 C.ar    1  UNL1        0.0148
     11 C          64.8198   91.0394   13.2734 C.ar    1  UNL1        0.0579
     12 C          63.9732   90.6601   12.0947 C.3     1  UNL1        0.0456
     13 C          63.9443   91.5379   10.8787 C.3     1  UNL1        0.0066
     14 C          64.7620   92.7949   10.8414 C.3     1  UNL1        0.0052
     15 C          65.6086   93.1741   12.0202 C.3     1  UNL1        0.0291
     16 C          67.3048   93.5176   14.9313 C.3     1  UNL1        0.4362
     17 F          68.2387   94.6241   15.3232 F       1  UNL1       -0.1644
     18 F          68.1821   92.5270   15.6378 F       1  UNL1       -0.1644
     19 F          66.4275   94.5081   14.2249 F       1  UNL1       -0.1644
     20 C          62.5622   85.2395   16.4505 C.3     1  UNL1        0.1113
     21 O          63.9795   83.1045   16.0227 O.2     1  UNL1       -0.2747
     22 C          62.8029   83.9717   15.6858 C.2     1  UNL1        0.2269
     23 N          61.8670   83.5712   14.5841 N.am    1  UNL1       -0.3057
     24 H          61.0948   84.1404   14.3629 H       1  UNL1        0.1494
     25 C          62.1077   82.3035   13.8193 C.3     1  UNL1        0.0716
     26 C          61.7140   80.9230   14.2544 C.3     1  UNL1        0.0196
     27 C          62.1473   79.9600   13.1891 C.3     1  UNL1        0.0017
     28 C          62.8088   80.7453   12.0956 C.3     1  UNL1        0.0017
     29 C          62.7844   82.1937   12.4851 C.3     1  UNL1        0.0196
@<TRIPOS>BOND
     1    21    22    2
     2    22    20    1
     3    20     1    1
     4     1     2   ar
     5     2     3   ar
     6     3     4   ar
     7     4     7    1
     8     7     8   ar
     9     8     9   ar
    10     9    16    1
    11    16    17    1
    12    16    18    1
    13    16    19    1
    14     9    10   ar
    15    10    11   ar
    16    11    12    1
    17    12    13    1
    18    13    14    1
    19    14    15    1
    20     4     5   ar
    21     5     6   ar
    22    22    23   am
    23    23    25    1
    24    25    26    1
    25    26    27    1
    26    27    28    1
    27    28    29    1
    28     6     1   ar
    29    29    25    1
    30    11     7   ar
    31    15    10    1
    32    23    24    1
@<TRIPOS>MOLECULE
*****
 29 32 0 0 0
SMALL
GASTEIGER

@<TRIPOS>ATOM
      1 C          61.8980   88.6686   11.4067 C.ar    1  UNL1       -0.0130
      2 C          62.9008   88.6123   12.5207 C.ar    1  UNL1       -0.0022
      3 C          63.8484   89.7551   12.7354 C.ar    1  UNL1        0.0188
      4 C          63.7932   90.9542   11.8361 C.ar    1  UNL1        0.0824
      5 C          62.7903   91.0106   10.7219 C.ar    1  UNL1        0.0188
      6 C          61.8427   89.8678   10.5073 C.ar    1  UNL1       -0.0022
      7 N          64.7408   92.0971   12.0507 N.ar    1  UNL1       -0.2341
      8 N          65.0744   93.1653   11.0519 N.ar    1  UNL1       -0.1617
      9 C          66.0609   94.1007   11.6858 C.ar    1  UNL1        0.1696
     10 C          66.3369   93.6106   13.0764 C.ar    1  UNL1        0.0148
     11 C          65.5210   92.3723   13.3019 C.ar    1  UNL1        0.0579
     12 C          65.5939   91.6553   14.6174 C.3     1  UNL1        0.0456
     13 C          66.4828   92.1767   15.7074 C.3     1  UNL1        0.0066
     14 C          67.2987   93.4150   15.4819 C.3     1  UNL1        0.0052
     15 C          67.2258   94.1320   14.1664 C.3     1  UNL1        0.0291
     16 C          66.6653   95.3133   11.0422 C.3     1  UNL1        0.4362
     17 F          67.2698   96.5259   10.3985 F       1  UNL1       -0.1644
     18 F          67.4935   94.4303   10.1565 F       1  UNL1       -0.1644
     19 F          65.8372   96.1962   11.9278 F       1  UNL1       -0.1644
     20 C          60.9504   87.5258   11.1920 C.3     1  UNL1        0.1113
     21 O          61.6887   85.1056   10.6025 O.2     1  UNL1       -0.2747
     22 C          61.2617   86.4760   10.1669 C.2     1  UNL1        0.2269
     23 N          61.1461   86.7964    8.7061 N.am    1  UNL1       -0.3057
     24 H          60.8658   87.6958    8.4202 H       1  UNL1        0.1494
     25 C          61.4573   85.7466    7.6809 C.3     1  UNL1        0.0716
     26 C          62.8096   85.1607    7.4014 C.3     1  UNL1        0.0196
     27 C          62.6590   84.1504    6.3030 C.3     1  UNL1        0.0017
     28 C          61.2136   84.1119    5.9036 C.3     1  UNL1        0.0017
     29 C          60.4710   85.0984    6.7552 C.3     1  UNL1        0.0196
@<TRIPOS>BOND
     1    21    22    2
     2    22    20    1
     3    20     1    1
     4     1     2   ar
     5     2     3   ar
     6     3     4   ar
     7     4     7    1
     8     7     8   ar
     9     8     9   ar
    10     9    16    1
    11    16    17    1
    12    16    18    1
    13    16    19    1
    14     9    10   ar
    15    10    11   ar
    16    11    12    1
    17    12    13    1
    18    13    14    1
    19    14    15    1
    20     4     5   ar
    21     5     6   ar
    22    22    23   am
    23    23    25    1
    24    25    26    1
    25    26    27    1
    26    27    28    1
    27    28    29    1
    28     6     1   ar
    29    29    25    1
    30    11     7   ar
    31    15    10    1
    32    23    24    1
@<TRIPOS>MOLECULE
*****
 29 32 0 0 0
SMALL
GASTEIGER

@<TRIPOS>ATOM
      1 C          64.2338   88.6903   14.2199 C.ar    1  UNL1       -0.0130
      2 C          63.5404   88.3397   12.9369 C.ar    1  UNL1       -0.0022
      3 C          63.1812   86.9130   12.6440 C.ar    1  UNL1        0.0188
      4 C          63.5155   85.8370   13.6341 C.ar    1  UNL1        0.0824
      5 C          64.2090   86.1877   14.9172 C.ar    1  UNL1        0.0188
      6 C          64.5681   87.6143   15.2101 C.ar    1  UNL1       -0.0022
      7 N          63.1564   84.4104   13.3412 N.ar    1  UNL1       -0.2341
      8 N          62.4075   83.4846   14.2535 N.ar    1  UNL1       -0.1617
      9 C          62.2714   82.1612   13.5607 C.ar    1  UNL1        0.1696
     10 C          62.9361   82.2690   12.2204 C.ar    1  UNL1        0.0148
     11 C          63.4830   83.6591   12.0847 C.ar    1  UNL1        0.0579
     12 C          64.2078   84.0612   10.8346 C.3     1  UNL1        0.0456
     13 C          64.3857   83.0732    9.7201 C.3     1  UNL1        0.0066
     14 C          63.8387   81.6831    9.8557 C.3     1  UNL1        0.0052
     15 C          63.1139   81.2810   11.1059 C.3     1  UNL1        0.0291
     16 C          61.5902   80.9436   14.1116 C.3     1  UNL1        0.4362
     17 F          60.9090   79.7260   14.6625 F       1  UNL1       -0.1644
     18 F          62.9040   80.2203   14.1377 F       1  UNL1       -0.1644
     19 F          60.2764   81.6668   14.0856 F       1  UNL1       -0.1644
     20 C          64.5930   90.1169   14.5128 C.3     1  UNL1        0.1113
     21 O          63.6944   91.3956   12.4373 O.2     1  UNL1       -0.2747
     22 C          64.8136   91.0813   13.3853 C.2     1  UNL1        0.2269
     23 N          66.1534   91.7315   13.2057 N.am    1  UNL1       -0.3057
     24 H          66.8880   91.5252   13.8279 H       1  UNL1        0.1494
     25 C          66.3741   92.6959   12.0783 C.3     1  UNL1        0.0716
     26 C          66.8490   92.3462   10.6991 C.3     1  UNL1        0.0196
     27 C          66.9270   93.6136    9.9005 C.3     1  UNL1        0.0017
     28 C          66.5004   94.7465   10.7862 C.3     1  UNL1        0.0017
     29 C          66.1586   94.1793   12.1321 C.3     1  UNL1        0.0196
@<TRIPOS>BOND
     1    21    22    2
     2    22    20    1
     3    20     1    1
     4     1     2   ar
     5     2     3   ar
     6     3     4   ar
     7     4     7    1
     8     7     8   ar
     9     8     9   ar
    10     9    16    1
    11    16    17    1
    12    16    18    1
    13    16    19    1
    14     9    10   ar
    15    10    11   ar
    16    11    12    1
    17    12    13    1
    18    13    14    1
    19    14    15    1
    20     4     5   ar
    21     5     6   ar
    22    22    23   am
    23    23    25    1
    24    25    26    1
    25    26    27    1
    26    27    28    1
    27    28    29    1
    28     6     1   ar
    29    29    25    1
    30    11     7   ar
    31    15    10    1
    32    23    24    1
@<TRIPOS>MOLECULE
*****
 29 32 0 0 0
SMALL
GASTEIGER

@<TRIPOS>ATOM
      1 C          62.1818   88.4504   11.0021 C.ar    1  UNL1       -0.0130
      2 C          62.8901   88.1960   12.2997 C.ar    1  UNL1       -0.0022
      3 C          63.7921   89.2447   12.8798 C.ar    1  UNL1        0.0188
      4 C          63.9858   90.5477   12.1626 C.ar    1  UNL1        0.0824
      5 C          63.2775   90.8021   10.8650 C.ar    1  UNL1        0.0188
      6 C          62.3755   89.7534   10.2848 C.ar    1  UNL1       -0.0022
      7 N          64.8879   91.5964   12.7427 N.ar    1  UNL1       -0.2341
      8 N          65.5479   91.5452   14.0888 N.ar    1  UNL1       -0.1617
      9 C          66.3562   92.7976   14.2566 C.ar    1  UNL1        0.1696
     10 C          66.1957   93.6228   13.0143 C.ar    1  UNL1        0.0148
     11 C          65.2882   92.8805   12.0787 C.ar    1  UNL1        0.0579
     12 C          64.9437   93.4696   10.7430 C.3     1  UNL1        0.0456
     13 C          65.5067   94.8011   10.3429 C.3     1  UNL1        0.0066
     14 C          66.4141   95.5435   11.2786 C.3     1  UNL1        0.0052
     15 C          66.7586   94.9544   12.6143 C.3     1  UNL1        0.0291
     16 C          67.1802   93.1609   15.4561 C.3     1  UNL1        0.4362
     17 F          68.0043   93.5243   16.6557 F       1  UNL1       -0.1644
     18 F          65.9643   93.0447   16.3267 F       1  UNL1       -0.1644
     19 F          68.3961   93.2772   14.5856 F       1  UNL1       -0.1644
     20 C          61.2797   87.4017   10.4220 C.3     1  UNL1        0.1113
     21 O          61.7832   85.3754    8.8758 O.2     1  UNL1       -0.2747
     22 C          61.7801   85.9994   10.2398 C.2     1  UNL1        0.2269
     23 N          62.2774   85.2211   11.4218 N.am    1  UNL1       -0.3057
     24 H          62.2754   85.6306   12.3170 H       1  UNL1        0.1494
     25 C          62.7779   83.8188   11.2397 C.3     1  UNL1        0.0716
     26 C          62.3810   82.6275   12.0603 C.3     1  UNL1        0.0196
     27 C          63.1209   81.4340   11.5328 C.3     1  UNL1        0.0017
     28 C          63.9750   81.8878   10.3863 C.3     1  UNL1        0.0017
     29 C          63.7630   83.3616   10.2051 C.3     1  UNL1        0.0196
@<TRIPOS>BOND
     1    21    22    2
     2    22    20    1
     3    20     1    1
     4     1     2   ar
     5     2     3   ar
     6     3     4   ar
     7     4     7    1
     8     7     8   ar
     9     8     9   ar
    10     9    16    1
    11    16    17    1
    12    16    18    1
    13    16    19    1
    14     9    10   ar
    15    10    11   ar
    16    11    12    1
    17    12    13    1
    18    13    14    1
    19    14    15    1
    20     4     5   ar
    21     5     6   ar
    22    22    23   am
    23    23    25    1
    24    25    26    1
    25    26    27    1
    26    27    28    1
    27    28    29    1
    28     6     1   ar
    29    29    25    1
    30    11     7   ar
    31    15    10    1
    32    23    24    1
@<TRIPOS>MOLECULE
*****
 29 32 0 0 0
SMALL
GASTEIGER

@<TRIPOS>ATOM
      1 C          63.3837   86.8473   15.8630 C.ar    1  UNL1       -0.0130
      2 C          63.1618   88.1560   16.5616 C.ar    1  UNL1       -0.0022
      3 C          63.6763   89.4272   15.9539 C.ar    1  UNL1        0.0188
      4 C          64.4127   89.3898   14.6477 C.ar    1  UNL1        0.0824
      5 C          64.6346   88.0810   13.9491 C.ar    1  UNL1        0.0188
      6 C          64.1201   86.8098   14.5568 C.ar    1  UNL1       -0.0022
      7 N          64.9272   90.6610   14.0400 N.ar    1  UNL1       -0.2341
      8 N          64.5511   91.2112   12.6962 N.ar    1  UNL1       -0.1617
      9 C          65.2996   92.4955   12.4952 C.ar    1  UNL1        0.1696
     10 C          66.1384   92.7390   13.7147 C.ar    1  UNL1        0.0148
     11 C          65.9082   91.6052   14.6695 C.ar    1  UNL1        0.0579
     12 C          66.6216   91.5790   15.9887 C.3     1  UNL1        0.0456
     13 C          67.5652   92.6866   16.3531 C.3     1  UNL1        0.0066
     14 C          67.7954   93.8204   15.3983 C.3     1  UNL1        0.0052
     15 C          67.0819   93.8466   14.0791 C.3     1  UNL1        0.0291
     16 C          65.2229   93.3808   11.2867 C.3     1  UNL1        0.4362
     17 F          65.1462   94.2662   10.0783 F       1  UNL1       -0.1644
     18 F          65.7912   94.5176   12.0835 F       1  UNL1       -0.1644
     19 F          64.6547   92.2441   10.4900 F       1  UNL1       -0.1644
     20 C          62.8692   85.5761   16.4707 C.3     1  UNL1        0.1113
     21 O          64.1380   83.3438   16.0743 O.2     1  UNL1       -0.2747
     22 C          63.0160   84.2788   15.7323 C.2     1  UNL1        0.2269
     23 N          62.0408   83.9163   14.6516 N.am    1  UNL1       -0.3057
     24 H          61.3044   84.5300   14.4271 H       1  UNL1        0.1494
     25 C          62.1876   82.6190   13.9131 C.3     1  UNL1        0.0716
     26 C          61.6886   81.2813   14.3730 C.3     1  UNL1        0.0196
     27 C          62.0517   80.2672   13.3291 C.3     1  UNL1        0.0017
     28 C          62.7752   80.9782   12.2241 C.3     1  UNL1        0.0017
     29 C          62.8592   82.4317   12.5850 C.3     1  UNL1        0.0196
@<TRIPOS>BOND
     1    21    22    2
     2    22    20    1
     3    20     1    1
     4     1     2   ar
     5     2     3   ar
     6     3     4   ar
     7     4     7    1
     8     7     8   ar
     9     8     9   ar
    10     9    16    1
    11    16    17    1
    12    16    18    1
    13    16    19    1
    14     9    10   ar
    15    10    11   ar
    16    11    12    1
    17    12    13    1
    18    13    14    1
    19    14    15    1
    20     4     5   ar
    21     5     6   ar
    22    22    23   am
    23    23    25    1
    24    25    26    1
    25    26    27    1
    26    27    28    1
    27    28    29    1
    28     6     1   ar
    29    29    25    1
    30    11     7   ar
    31    15    10    1
    32    23    24    1
@<TRIPOS>MOLECULE
*****
 29 32 0 0 0
SMALL
GASTEIGER

@<TRIPOS>ATOM
      1 C          59.9667   88.8698    8.3420 C.ar    1  UNL1       -0.0130
      2 C          60.8763   87.7123    8.6300 C.ar    1  UNL1       -0.0022
      3 C          61.7780   87.7470    9.8282 C.ar    1  UNL1        0.0188
      4 C          61.7702   88.9391   10.7385 C.ar    1  UNL1        0.0824
      5 C          60.8606   90.0967   10.4505 C.ar    1  UNL1        0.0188
      6 C          59.9589   90.0620    9.2523 C.ar    1  UNL1       -0.0022
      7 N          62.6719   88.9738   11.9367 N.ar    1  UNL1       -0.2341
      8 N          63.2222   90.2065   12.5906 N.ar    1  UNL1       -0.1617
      9 C          64.0720   89.7763   13.7495 C.ar    1  UNL1        0.1696
     10 C          64.0468   88.2778   13.8118 C.ar    1  UNL1        0.0148
     11 C          63.1814   87.7818   12.6915 C.ar    1  UNL1        0.0579
     12 C          62.9693   86.3089   12.5033 C.3     1  UNL1        0.0456
     13 C          63.6225   85.3320   13.4354 C.3     1  UNL1        0.0066
     14 C          64.4878   85.8280   14.5557 C.3     1  UNL1        0.0052
     15 C          64.7000   87.3009   14.7439 C.3     1  UNL1        0.0291
     16 C          64.8163   90.6851   14.6822 C.3     1  UNL1        0.4362
     17 F          65.5606   91.5939   15.6151 F       1  UNL1       -0.1644
     18 F          63.8533   90.3459   15.7811 F       1  UNL1       -0.1644
     19 F          65.7793   91.0243   13.5834 F       1  UNL1       -0.1644
     20 C          59.0651   88.8351    7.1438 C.3     1  UNL1        0.1113
     21 O          57.9426   90.5615    5.5595 O.2     1  UNL1       -0.2747
     22 C          59.1780   89.8959    6.0893 C.2     1  UNL1        0.2269
     23 N          60.5266   90.2912    5.5645 N.am    1  UNL1       -0.3057
     24 H          61.3374   89.8544    5.9123 H       1  UNL1        0.1494
     25 C          60.6396   91.3520    4.5101 C.3     1  UNL1        0.0716
     26 C          61.8160   91.5752    3.6066 C.3     1  UNL1        0.0196
     27 C          61.4995   92.7370    2.7120 C.3     1  UNL1        0.0017
     28 C          60.1276   93.2317    3.0627 C.3     1  UNL1        0.0017
     29 C          59.5961   92.3757    4.1739 C.3     1  UNL1        0.0196
@<TRIPOS>BOND
     1    21    22    2
     2    22    20    1
     3    20     1    1
     4     1     2   ar
     5     2     3   ar
     6     3     4   ar
     7     4     7    1
     8     7     8   ar
     9     8     9   ar
    10     9    16    1
    11    16    17    1
    12    16    18    1
    13    16    19    1
    14     9    10   ar
    15    10    11   ar
    16    11    12    1
    17    12    13    1
    18    13    14    1
    19    14    15    1
    20     4     5   ar
    21     5     6   ar
    22    22    23   am
    23    23    25    1
    24    25    26    1
    25    26    27    1
    26    27    28    1
    27    28    29    1
    28     6     1   ar
    29    29    25    1
    30    11     7   ar
    31    15    10    1
    32    23    24    1
@<TRIPOS>MOLECULE
*****
 29 32 0 0 0
SMALL
GASTEIGER

@<TRIPOS>ATOM
      1 C          63.1617   84.1168   14.6839 C.ar    1  UNL1       -0.0130
      2 C          63.8030   84.9832   15.7270 C.ar    1  UNL1       -0.0022
      3 C          64.1033   86.4217   15.4260 C.ar    1  UNL1        0.0188
      4 C          63.7623   86.9938   14.0820 C.ar    1  UNL1        0.0824
      5 C          63.1209   86.1274   13.0389 C.ar    1  UNL1        0.0188
      6 C          62.8206   84.6889   13.3399 C.ar    1  UNL1       -0.0022
      7 N          64.0625   88.4323   13.7811 N.ar    1  UNL1       -0.2341
      8 N          64.8729   89.3613   14.6356 N.ar    1  UNL1       -0.1617
      9 C          64.9164   90.6975   13.9553 C.ar    1  UNL1        0.1696
     10 C          64.1328   90.5943   12.6804 C.ar    1  UNL1        0.0148
     11 C          63.6051   89.1943   12.5727 C.ar    1  UNL1        0.0579
     12 C          62.7763   88.7943   11.3883 C.3     1  UNL1        0.0456
     13 C          62.4751   89.7942   10.3115 C.3     1  UNL1        0.0066
     14 C          63.0028   91.1942   10.4192 C.3     1  UNL1        0.0052
     15 C          63.8316   91.5942   11.6037 C.3     1  UNL1        0.0291
     16 C          65.6198   91.9219   14.4611 C.3     1  UNL1        0.4362
     17 F          66.3233   93.1464   14.9670 F       1  UNL1       -0.1644
     18 F          64.6888   91.9714   15.6362 F       1  UNL1       -0.1644
     19 F          66.5508   91.8725   13.2862 F       1  UNL1       -0.1644
     20 C          62.8614   82.6783   14.9849 C.3     1  UNL1        0.1113
     21 O          61.1412   81.1186   13.8195 O.2     1  UNL1       -0.2747
     22 C          62.5066   81.7375   13.8719 C.2     1  UNL1        0.2269
     23 N          63.5171   81.4156   12.8110 N.am    1  UNL1       -0.3057
     24 H          64.4132   81.8219   12.8454 H       1  UNL1        0.1494
     25 C          63.1623   80.4748   11.6979 C.3     1  UNL1        0.0716
     26 C          63.1703   80.7988   10.2334 C.3     1  UNL1        0.0196
     27 C          62.7502   79.5690    9.4843 C.3     1  UNL1        0.0017
     28 C          62.4826   78.4850   10.4859 C.3     1  UNL1        0.0017
     29 C          62.7373   79.0448   11.8540 C.3     1  UNL1        0.0196
@<TRIPOS>BOND
     1    21    22    2
     2    22    20    1
     3    20     1    1
     4     1     2   ar
     5     2     3   ar
     6     3     4   ar
     7     4     7    1
     8     7     8   ar
     9     8     9   ar
    10     9    16    1
    11    16    17    1
    12    16    18    1
    13    16    19    1
    14     9    10   ar
    15    10    11   ar
    16    11    12    1
    17    12    13    1
    18    13    14    1
    19    14    15    1
    20     4     5   ar
    21     5     6   ar
    22    22    23   am
    23    23    25    1
    24    25    26    1
    25    26    27    1
    26    27    28    1
    27    28    29    1
    28     6     1   ar
    29    29    25    1
    30    11     7   ar
    31    15    10    1
    32    23    24    1
@<TRIPOS>MOLECULE
*****
 29 32 0 0 0
SMALL
GASTEIGER

@<TRIPOS>ATOM
      1 C          59.7710   88.6334    8.1707 C.ar    1  UNL1       -0.0130
      2 C          60.4241   87.3221    8.4930 C.ar    1  UNL1       -0.0022
      3 C          61.3348   87.2093    9.6796 C.ar    1  UNL1        0.0188
      4 C          61.5924   88.4078   10.5439 C.ar    1  UNL1        0.0824
      5 C          60.9394   89.7192   10.2216 C.ar    1  UNL1        0.0188
      6 C          60.0287   89.8320    9.0350 C.ar    1  UNL1       -0.0022
      7 N          62.5031   88.2951   11.7304 N.ar    1  UNL1       -0.2341
      8 N          62.7868   87.0444   12.5085 N.ar    1  UNL1       -0.1617
      9 C          63.7490   87.3896   13.6062 C.ar    1  UNL1        0.1696
     10 C          64.0600   88.8536   13.5065 C.ar    1  UNL1        0.0148
     11 C          63.2900   89.4132   12.3473 C.ar    1  UNL1        0.0579
     12 C          63.4049   90.8687   12.0031 C.3     1  UNL1        0.0456
     13 C          64.2898   91.7645   12.8182 C.3     1  UNL1        0.0066
     14 C          65.0598   91.2049   13.9775 C.3     1  UNL1        0.0052
     15 C          64.9449   89.7494   14.3217 C.3     1  UNL1        0.0291
     16 C          64.3030   86.4379   14.6247 C.3     1  UNL1        0.4362
     17 F          64.8569   85.4861   15.6432 F       1  UNL1       -0.1644
     18 F          64.5371   85.4210   13.5472 F       1  UNL1       -0.1644
     19 F          64.0688   87.4547   15.7022 F       1  UNL1       -0.1644
     20 C          58.8604   88.7462    6.9841 C.3     1  UNL1        0.1113
     21 O          57.8799   90.6156    5.4696 O.2     1  UNL1       -0.2747
     22 C          59.0606   89.8489    5.9872 C.2     1  UNL1        0.2269
     23 N          60.4417   90.1849    5.5079 N.am    1  UNL1       -0.3057
     24 H          61.2167   89.6817    5.8476 H       1  UNL1        0.1494
     25 C          60.6421   91.2876    4.5109 C.3     1  UNL1        0.0716
     26 C          61.8508   91.4843    3.6448 C.3     1  UNL1        0.0196
     27 C          61.6246   92.7055    2.8037 C.3     1  UNL1        0.0017
     28 C          60.2761   93.2635    3.1500 C.3     1  UNL1        0.0017
     29 C          59.6688   92.3873    4.2052 C.3     1  UNL1        0.0196
@<TRIPOS>BOND
     1    21    22    2
     2    22    20    1
     3    20     1    1
     4     1     2   ar
     5     2     3   ar
     6     3     4   ar
     7     4     7    1
     8     7     8   ar
     9     8     9   ar
    10     9    16    1
    11    16    17    1
    12    16    18    1
    13    16    19    1
    14     9    10   ar
    15    10    11   ar
    16    11    12    1
    17    12    13    1
    18    13    14    1
    19    14    15    1
    20     4     5   ar
    21     5     6   ar
    22    22    23   am
    23    23    25    1
    24    25    26    1
    25    26    27    1
    26    27    28    1
    27    28    29    1
    28     6     1   ar
    29    29    25    1
    30    11     7   ar
    31    15    10    1
    32    23    24    1
