@<TRIPOS>MOLECULE
*****
 25 27 0 0 0
SMALL
GASTEIGER

@<TRIPOS>ATOM
      1 C          64.5962   90.6664   14.4257 C.ar    1  UNL1        0.0008
      2 C          63.8945   91.0077   15.7068 C.ar    1  UNL1       -0.0003
      3 C          63.3615   89.9141   16.5842 C.ar    1  UNL1       -0.0045
      4 C          63.5302   88.4793   16.1806 C.ar    1  UNL1       -0.0247
      5 C          64.2319   88.1381   14.8996 C.ar    1  UNL1       -0.0247
      6 C          64.7649   89.2316   14.0221 C.ar    1  UNL1       -0.0045
      7 C          64.2487   86.6443   14.7640 C.3     1  UNL1        0.0437
      8 C          63.5574   86.0623   15.9612 C.3     1  UNL1        0.0838
      9 C          63.1133   87.1964   16.8368 C.3     1  UNL1        0.0437
     10 C          66.7284   95.0407   10.9158 C.3     1  UNL1        0.0521
     11 C          66.1954   93.9472   11.7932 C.ar    1  UNL1        0.0590
     12 C          65.2061   92.9614   11.2458 C.ar    1  UNL1        0.0147
     13 C          64.6731   91.8678   12.1234 C.ar    1  UNL1        0.0024
     14 C          65.1293   91.7600   13.5482 C.ar    1  UNL1        0.0136
     15 C          66.1185   92.7458   14.0956 C.ar    1  UNL1        0.0589
     16 C          66.5747   92.6380   15.5205 C.3     1  UNL1        0.0521
     17 N          66.6516   93.8394   13.2181 N.ar    1  UNL1       -0.2540
     18 N          63.3470   84.6025   16.2348 N.3     1  UNL1       -0.1841
     19 H          62.6313   84.5388   16.9587 H       1  UNL1        0.1484
     20 S          62.9244   83.6850   15.1260 S.O2    1  UNL1        0.0390
     21 O          61.6748   84.4923   14.9343 O.2     1  UNL1       -0.1576
     22 O          64.1740   82.8777   15.3177 O.2     1  UNL1       -0.1576
     23 C          62.5017   82.7674   14.0172 C.3     1  UNL1        0.1457
     24 C          62.8701   83.0861   12.5984 C.3     1  UNL1        0.0270
     25 C          61.7107   81.5312   14.3271 C.3     1  UNL1        0.0270
@<TRIPOS>BOND
     1    10    11    1
     2    11    12   ar
     3    12    13   ar
     4    13    14   ar
     5    14     1    1
     6     1     2   ar
     7     2     3   ar
     8     3     4   ar
     9     4     5   ar
    10     5     6   ar
    11     5     7    1
    12     7     8    1
    13     8    18    1
    14    18    20    1
    15    20    21    2
    16    20    22    2
    17    20    23    1
    18    23    24    1
    19    23    25    1
    20     8     9    1
    21    14    15   ar
    22    15    16    1
    23    15    17   ar
    24    17    11   ar
    25     6     1   ar
    26     9     4    1
    27    18    19    1
@<TRIPOS>MOLECULE
*****
 25 27 0 0 0
SMALL
GASTEIGER

@<TRIPOS>ATOM
      1 C          64.2857   89.4348   14.8557 C.ar    1  UNL1        0.0008
      2 C          63.5094   89.5554   16.1335 C.ar    1  UNL1       -0.0003
      3 C          63.0013   88.3231   16.8215 C.ar    1  UNL1       -0.0045
      4 C          63.2694   86.9703   16.2316 C.ar    1  UNL1       -0.0247
      5 C          64.0457   86.8497   14.9538 C.ar    1  UNL1       -0.0247
      6 C          64.5538   88.0819   14.2659 C.ar    1  UNL1       -0.0045
      7 C          64.1537   85.3930   14.6129 C.3     1  UNL1        0.0437
      8 C          63.4442   84.6132   15.6800 C.3     1  UNL1        0.0838
      9 C          62.8977   85.5881   16.6805 C.3     1  UNL1        0.0437
     10 C          66.3183   94.3638   12.1036 C.3     1  UNL1        0.0521
     11 C          65.8101   93.1315   12.7916 C.ar    1  UNL1        0.0590
     12 C          66.4773   92.6421   14.0428 C.ar    1  UNL1        0.0147
     13 C          65.9691   91.4098   14.7308 C.ar    1  UNL1        0.0024
     14 C          64.7939   90.6671   14.1677 C.ar    1  UNL1        0.0136
     15 C          64.1267   91.1566   12.9166 C.ar    1  UNL1        0.0589
     16 C          62.9514   90.4138   12.3535 C.3     1  UNL1        0.0521
     17 N          64.6348   92.3888   12.2285 N.ar    1  UNL1       -0.2540
     18 N          63.3057   83.1207   15.7366 N.3     1  UNL1       -0.1841
     19 H          62.6107   82.9165   16.4548 H       1  UNL1        0.1484
     20 S          62.8984   82.3582   14.5107 S.O2    1  UNL1        0.0390
     21 O          64.2419   81.6920   14.4787 O.2     1  UNL1       -0.1576
     22 O          61.5548   83.0244   14.5428 O.2     1  UNL1       -0.1576
     23 C          62.4911   81.5958   13.2849 C.3     1  UNL1        0.1457
     24 C          62.6832   82.2020   11.9263 C.3     1  UNL1        0.0270
     25 C          61.8917   80.2272   13.4175 C.3     1  UNL1        0.0270
@<TRIPOS>BOND
     1    10    11    1
     2    11    12   ar
     3    12    13   ar
     4    13    14   ar
     5    14     1    1
     6     1     2   ar
     7     2     3   ar
     8     3     4   ar
     9     4     5   ar
    10     5     6   ar
    11     5     7    1
    12     7     8    1
    13     8    18    1
    14    18    20    1
    15    20    21    2
    16    20    22    2
    17    20    23    1
    18    23    24    1
    19    23    25    1
    20     8     9    1
    21    14    15   ar
    22    15    16    1
    23    15    17   ar
    24    17    11   ar
    25     6     1   ar
    26     9     4    1
    27    18    19    1
@<TRIPOS>MOLECULE
*****
 25 27 0 0 0
SMALL
GASTEIGER

@<TRIPOS>ATOM
      1 C          62.7826   85.6405   12.3590 C.ar    1  UNL1        0.0008
      2 C          62.0962   86.2059   11.1510 C.ar    1  UNL1       -0.0003
      3 C          62.1312   87.6827   10.8910 C.ar    1  UNL1       -0.0045
      4 C          62.8527   88.5942   11.8390 C.ar    1  UNL1       -0.0247
      5 C          63.5391   88.0289   13.0470 C.ar    1  UNL1       -0.0247
      6 C          63.5040   86.5520   13.3070 C.ar    1  UNL1       -0.0045
      7 C          64.1666   89.1656   13.7980 C.3     1  UNL1        0.0437
      8 C          63.8680   90.4335   13.0542 C.3     1  UNL1        0.0838
      9 C          63.0560   90.0804   11.8435 C.3     1  UNL1        0.0437
     10 C          62.6424   79.7330   13.3990 C.3     1  UNL1        0.0521
     11 C          62.6774   81.2098   13.1390 C.ar    1  UNL1        0.0590
     12 C          62.1867   82.1672   14.1843 C.ar    1  UNL1        0.0147
     13 C          62.2217   83.6441   13.9242 C.ar    1  UNL1        0.0024
     14 C          62.7475   84.1636   12.6190 C.ar    1  UNL1        0.0136
     15 C          63.2383   83.2062   11.5738 C.ar    1  UNL1        0.0589
     16 C          63.7642   83.7257   10.2685 C.3     1  UNL1        0.0521
     17 N          63.2033   81.7293   11.8338 N.ar    1  UNL1       -0.2540
     18 N          64.3048   91.8125   13.4514 N.3     1  UNL1       -0.1841
     19 H          63.6023   92.1687   14.0995 H       1  UNL1        0.1484
     20 S          65.6396   92.0174   14.1043 S.O2    1  UNL1        0.0390
     21 O          64.9717   92.0965   15.4451 O.2     1  UNL1       -0.1576
     22 O          66.3076   91.9383   12.7636 O.2     1  UNL1       -0.1576
     23 C          66.9744   92.2224   14.7572 C.3     1  UNL1        0.1457
     24 C          67.0500   92.7369   16.1643 C.3     1  UNL1        0.0270
     25 C          68.2336   91.9128   14.0032 C.3     1  UNL1        0.0270
@<TRIPOS>BOND
     1    10    11    1
     2    11    12   ar
     3    12    13   ar
     4    13    14   ar
     5    14     1    1
     6     1     2   ar
     7     2     3   ar
     8     3     4   ar
     9     4     5   ar
    10     5     6   ar
    11     5     7    1
    12     7     8    1
    13     8    18    1
    14    18    20    1
    15    20    21    2
    16    20    22    2
    17    20    23    1
    18    23    24    1
    19    23    25    1
    20     8     9    1
    21    14    15   ar
    22    15    16    1
    23    15    17   ar
    24    17    11   ar
    25     6     1   ar
    26     9     4    1
    27    18    19    1
@<TRIPOS>MOLECULE
*****
 25 27 0 0 0
SMALL
GASTEIGER

@<TRIPOS>ATOM
      1 C          62.8140   85.6389   12.3537 C.ar    1  UNL1        0.0008
      2 C          62.1125   86.2202   11.1622 C.ar    1  UNL1       -0.0003
      3 C          62.1349   87.7016   10.9277 C.ar    1  UNL1       -0.0045
      4 C          62.8588   88.6016   11.8848 C.ar    1  UNL1       -0.0247
      5 C          63.5604   88.0202   13.0763 C.ar    1  UNL1       -0.0247
      6 C          63.5380   86.5388   13.3108 C.ar    1  UNL1       -0.0045
      7 C          64.1870   89.1481   13.8412 C.3     1  UNL1        0.0437
      8 C          63.8727   90.4266   13.1225 C.3     1  UNL1        0.0838
      9 C          63.0518   90.0889   11.9133 C.3     1  UNL1        0.0437
     10 C          62.7245   79.7133   13.2919 C.3     1  UNL1        0.0521
     11 C          62.7469   81.1946   13.0573 C.ar    1  UNL1        0.0590
     12 C          63.0342   81.7327   11.6870 C.ar    1  UNL1        0.0147
     13 C          63.0566   83.2142   11.4525 C.ar    1  UNL1        0.0024
     14 C          62.7916   84.1574   12.5883 C.ar    1  UNL1        0.0136
     15 C          62.5043   83.6193   13.9586 C.ar    1  UNL1        0.0589
     16 C          62.2393   84.5626   15.0944 C.3     1  UNL1        0.0521
     17 N          62.4819   82.1379   14.1932 N.ar    1  UNL1       -0.2540
     18 N          64.3036   91.8016   13.5397 N.3     1  UNL1       -0.1841
     19 H          63.6151   92.1337   14.2150 H       1  UNL1        0.1484
     20 S          65.6535   92.0084   14.1601 S.O2    1  UNL1        0.0390
     21 O          65.0196   92.0723   15.5181 O.2     1  UNL1       -0.1576
     22 O          66.2874   91.9445   12.8021 O.2     1  UNL1       -0.1576
     23 C          67.0034   92.2153   14.7805 C.3     1  UNL1        0.1457
     24 C          68.2441   91.8887   14.0032 C.3     1  UNL1        0.0270
     25 C          67.1127   92.7487   16.1782 C.3     1  UNL1        0.0270
@<TRIPOS>BOND
     1    10    11    1
     2    11    12   ar
     3    12    13   ar
     4    13    14   ar
     5    14     1    1
     6     1     2   ar
     7     2     3   ar
     8     3     4   ar
     9     4     5   ar
    10     5     6   ar
    11     5     7    1
    12     7     8    1
    13     8    18    1
    14    18    20    1
    15    20    21    2
    16    20    22    2
    17    20    23    1
    18    23    24    1
    19    23    25    1
    20     8     9    1
    21    14    15   ar
    22    15    16    1
    23    15    17   ar
    24    17    11   ar
    25     6     1   ar
    26     9     4    1
    27    18    19    1
@<TRIPOS>MOLECULE
*****
 25 27 0 0 0
SMALL
GASTEIGER

@<TRIPOS>ATOM
      1 C          63.7270   84.7120   13.0222 C.ar    1  UNL1        0.0008
      2 C          64.4472   84.8303   14.3327 C.ar    1  UNL1       -0.0003
      3 C          64.6894   86.1821   14.9359 C.ar    1  UNL1       -0.0045
      4 C          64.2114   87.4156   14.2288 C.ar    1  UNL1       -0.0247
      5 C          63.4912   87.2973   12.9184 C.ar    1  UNL1       -0.0247
      6 C          63.2490   85.9455   12.3151 C.ar    1  UNL1       -0.0045
      7 C          63.1392   88.6803   12.4564 C.3     1  UNL1        0.0437
      8 C          63.6419   89.6533   13.4814 C.3     1  UNL1        0.0838
      9 C          64.3046   88.8718   14.5768 C.3     1  UNL1        0.0437
     10 C          62.7580   79.3048   10.6090 C.3     1  UNL1        0.0521
     11 C          63.0003   80.6566   11.2123 C.ar    1  UNL1        0.0590
     12 C          63.7577   81.6970   10.4417 C.ar    1  UNL1        0.0147
     13 C          63.9999   83.0488   11.0450 C.ar    1  UNL1        0.0024
     14 C          63.4848   83.3602   12.4189 C.ar    1  UNL1        0.0136
     15 C          62.7274   82.3198   13.1895 C.ar    1  UNL1        0.0589
     16 C          62.2122   82.6312   14.5635 C.3     1  UNL1        0.0521
     17 N          62.4851   80.9680   12.5862 N.ar    1  UNL1       -0.2540
     18 N          63.5057   91.1460   13.4214 N.3     1  UNL1       -0.1841
     19 H          63.3275   91.4639   14.3740 H       1  UNL1        0.1484
     20 S          64.6327   91.9811   12.8899 S.O2    1  UNL1        0.0390
     21 O          65.0382   92.3264   14.2921 O.2     1  UNL1       -0.1576
     22 O          64.2272   91.6358   11.4876 O.2     1  UNL1       -0.1576
     23 C          65.7597   92.8163   12.3583 C.3     1  UNL1        0.1457
     24 C          66.5081   93.7373   13.2758 C.3     1  UNL1        0.0270
     25 C          66.1382   92.7304   10.9095 C.3     1  UNL1        0.0270
@<TRIPOS>BOND
     1    10    11    1
     2    11    12   ar
     3    12    13   ar
     4    13    14   ar
     5    14     1    1
     6     1     2   ar
     7     2     3   ar
     8     3     4   ar
     9     4     5   ar
    10     5     6   ar
    11     5     7    1
    12     7     8    1
    13     8    18    1
    14    18    20    1
    15    20    21    2
    16    20    22    2
    17    20    23    1
    18    23    24    1
    19    23    25    1
    20     8     9    1
    21    14    15   ar
    22    15    16    1
    23    15    17   ar
    24    17    11   ar
    25     6     1   ar
    26     9     4    1
    27    18    19    1
@<TRIPOS>MOLECULE
*****
 25 27 0 0 0
SMALL
GASTEIGER

@<TRIPOS>ATOM
      1 C          65.4521   91.8456   12.7824 C.ar    1  UNL1        0.0008
      2 C          65.3066   92.5113   11.4462 C.ar    1  UNL1       -0.0003
      3 C          64.2021   92.0987   10.5190 C.ar    1  UNL1       -0.0045
      4 C          63.2431   91.0203   10.9281 C.ar    1  UNL1       -0.0247
      5 C          63.3885   90.3546   12.2643 C.ar    1  UNL1       -0.0247
      6 C          64.4931   90.7672   13.1915 C.ar    1  UNL1       -0.0045
      7 C          62.3004   89.3302   12.3927 C.3     1  UNL1        0.0437
      8 C          61.4824   89.3628   11.1358 C.3     1  UNL1        0.0838
      9 C          62.0650   90.4073   10.2306 C.3     1  UNL1        0.0437
     10 C          69.8704   93.4961   16.4913 C.3     1  UNL1        0.0521
     11 C          68.7658   93.0835   15.5641 C.ar    1  UNL1        0.0590
     12 C          67.3351   93.2260   15.9917 C.ar    1  UNL1        0.0147
     13 C          66.2306   92.8133   15.0645 C.ar    1  UNL1        0.0024
     14 C          66.5567   92.2582   13.7097 C.ar    1  UNL1        0.0136
     15 C          67.9874   92.1157   13.2821 C.ar    1  UNL1        0.0589
     16 C          68.3135   91.5606   11.9272 C.3     1  UNL1        0.0521
     17 N          69.0919   92.5283   14.2093 N.ar    1  UNL1       -0.2540
     18 N          60.2909   88.5019   10.8367 N.3     1  UNL1       -0.1841
     19 H          59.5007   89.1313   10.6961 H       1  UNL1        0.1484
     20 S          60.3156   87.5689    9.6624 S.O2    1  UNL1        0.0390
     21 O          59.6670   88.6212    8.8127 O.2     1  UNL1       -0.1576
     22 O          60.9642   86.5166   10.5121 O.2     1  UNL1       -0.1576
     23 C          60.3403   86.6359    8.4881 C.3     1  UNL1        0.1457
     24 C          59.1392   86.5198    7.5971 C.3     1  UNL1        0.0270
     25 C          61.5661   85.8191    8.2049 C.3     1  UNL1        0.0270
@<TRIPOS>BOND
     1    10    11    1
     2    11    12   ar
     3    12    13   ar
     4    13    14   ar
     5    14     1    1
     6     1     2   ar
     7     2     3   ar
     8     3     4   ar
     9     4     5   ar
    10     5     6   ar
    11     5     7    1
    12     7     8    1
    13     8    18    1
    14    18    20    1
    15    20    21    2
    16    20    22    2
    17    20    23    1
    18    23    24    1
    19    23    25    1
    20     8     9    1
    21    14    15   ar
    22    15    16    1
    23    15    17   ar
    24    17    11   ar
    25     6     1   ar
    26     9     4    1
    27    18    19    1
@<TRIPOS>MOLECULE
*****
 25 27 0 0 0
SMALL
GASTEIGER

@<TRIPOS>ATOM
      1 C          62.7443   88.6993   11.6004 C.ar    1  UNL1        0.0008
      2 C          63.2365   87.8779   12.7550 C.ar    1  UNL1       -0.0003
      3 C          64.1110   88.5030   13.8011 C.ar    1  UNL1       -0.0045
      4 C          64.4933   89.9494   13.6927 C.ar    1  UNL1       -0.0247
      5 C          64.0011   90.7707   12.5382 C.ar    1  UNL1       -0.0247
      6 C          63.1266   90.1457   11.4920 C.ar    1  UNL1       -0.0045
      7 C          64.5391   92.1619   12.6963 C.3     1  UNL1        0.0437
      8 C          65.3639   92.2004   13.9487 C.3     1  UNL1        0.0838
      9 C          65.3356   90.8330   14.5645 C.3     1  UNL1        0.0437
     10 C          59.2462   86.1992    7.4156 C.3     1  UNL1        0.0521
     11 C          60.1207   86.8242    8.4617 C.ar    1  UNL1        0.0590
     12 C          61.5379   86.3618    8.6286 C.ar    1  UNL1        0.0147
     13 C          62.4124   86.9869    9.6748 C.ar    1  UNL1        0.0024
     14 C          61.8698   88.0742   10.5542 C.ar    1  UNL1        0.0136
     15 C          60.4526   88.5365   10.3873 C.ar    1  UNL1        0.0589
     16 C          59.9099   89.6239   11.2667 C.3     1  UNL1        0.0521
     17 N          59.5781   87.9115    9.3411 N.ar    1  UNL1       -0.2540
     18 N          66.0895   93.3965   14.4901 N.3     1  UNL1       -0.1841
     19 H          65.4562   93.8527   15.1468 H       1  UNL1        0.1484
     20 S          67.3983   93.2209   15.2016 S.O2    1  UNL1        0.0390
     21 O          66.7055   93.3994   16.5200 O.2     1  UNL1       -0.1576
     22 O          68.0911   93.0424   13.8833 O.2     1  UNL1       -0.1576
     23 C          68.7071   93.0454   15.9132 C.3     1  UNL1        0.1457
     24 C          69.0507   91.7249   16.5363 C.3     1  UNL1        0.0270
     25 C          69.6721   94.1903   16.0016 C.3     1  UNL1        0.0270
@<TRIPOS>BOND
     1    10    11    1
     2    11    12   ar
     3    12    13   ar
     4    13    14   ar
     5    14     1    1
     6     1     2   ar
     7     2     3   ar
     8     3     4   ar
     9     4     5   ar
    10     5     6   ar
    11     5     7    1
    12     7     8    1
    13     8    18    1
    14    18    20    1
    15    20    21    2
    16    20    22    2
    17    20    23    1
    18    23    24    1
    19    23    25    1
    20     8     9    1
    21    14    15   ar
    22    15    16    1
    23    15    17   ar
    24    17    11   ar
    25     6     1   ar
    26     9     4    1
    27    18    19    1
@<TRIPOS>MOLECULE
*****
 25 27 0 0 0
SMALL
GASTEIGER

@<TRIPOS>ATOM
      1 C          62.4678   86.7323   10.1408 C.ar    1  UNL1        0.0008
      2 C          62.6685   85.9426   11.4001 C.ar    1  UNL1       -0.0003
      3 C          63.0488   86.6420   12.6714 C.ar    1  UNL1       -0.0045
      4 C          63.2286   88.1312   12.6833 C.ar    1  UNL1       -0.0247
      5 C          63.0279   88.9209   11.4239 C.ar    1  UNL1       -0.0247
      6 C          62.6476   88.2215   10.1527 C.ar    1  UNL1       -0.0045
      7 C          63.2735   90.3666   11.7393 C.3     1  UNL1        0.0437
      8 C          63.6259   90.4704   13.1937 C.3     1  UNL1        0.0838
      9 C          63.5981   89.0888   13.7771 C.3     1  UNL1        0.0437
     10 C          60.9463   83.9348    5.0556 C.3     1  UNL1        0.0521
     11 C          61.3267   84.6341    6.3269 C.ar    1  UNL1        0.0590
     12 C          62.7154   84.4905    6.8753 C.ar    1  UNL1        0.0147
     13 C          63.0958   85.1899    8.1466 C.ar    1  UNL1        0.0024
     14 C          62.0875   86.0329    8.8695 C.ar    1  UNL1        0.0136
     15 C          60.6987   86.1766    8.3210 C.ar    1  UNL1        0.0589
     16 C          59.6904   87.0197    9.0439 C.3     1  UNL1        0.0521
     17 N          60.3183   85.4772    7.0498 N.ar    1  UNL1       -0.2540
     18 N          63.9493   91.7341   13.9345 N.3     1  UNL1       -0.1841
     19 H          63.3583   91.7475   14.7657 H       1  UNL1        0.1484
     20 S          65.3524   91.9944   14.3965 S.O2    1  UNL1        0.0390
     21 O          64.8660   92.1058   15.8111 O.2     1  UNL1       -0.1576
     22 O          65.8388   91.8830   12.9819 O.2     1  UNL1       -0.1576
     23 C          66.7555   92.2548   14.8585 C.3     1  UNL1        0.1457
     24 C          67.9123   91.9450   13.9551 C.3     1  UNL1        0.0270
     25 C          67.0020   92.8248   16.2239 C.3     1  UNL1        0.0270
@<TRIPOS>BOND
     1    10    11    1
     2    11    12   ar
     3    12    13   ar
     4    13    14   ar
     5    14     1    1
     6     1     2   ar
     7     2     3   ar
     8     3     4   ar
     9     4     5   ar
    10     5     6   ar
    11     5     7    1
    12     7     8    1
    13     8    18    1
    14    18    20    1
    15    20    21    2
    16    20    22    2
    17    20    23    1
    18    23    24    1
    19    23    25    1
    20     8     9    1
    21    14    15   ar
    22    15    16    1
    23    15    17   ar
    24    17    11   ar
    25     6     1   ar
    26     9     4    1
    27    18    19    1
@<TRIPOS>MOLECULE
*****
 25 27 0 0 0
SMALL
GASTEIGER

@<TRIPOS>ATOM
      1 C          63.7244   83.9473   13.0315 C.ar    1  UNL1        0.0008
      2 C          64.4489   83.9987   14.3438 C.ar    1  UNL1       -0.0003
      3 C          64.7302   85.3209   14.9939 C.ar    1  UNL1       -0.0045
      4 C          64.2870   86.5917   14.3315 C.ar    1  UNL1       -0.0247
      5 C          63.5625   86.5403   13.0192 C.ar    1  UNL1       -0.0247
      6 C          63.2811   85.2181   12.3691 C.ar    1  UNL1       -0.0045
      7 C          63.2497   87.9482   12.6069 C.3     1  UNL1        0.0437
      8 C          63.7809   88.8698   13.6645 C.3     1  UNL1        0.0838
      9 C          64.4220   88.0315   14.7304 C.3     1  UNL1        0.0437
     10 C          62.5990   78.6585   10.4310 C.3     1  UNL1        0.0521
     11 C          62.8803   79.9807   11.0811 C.ar    1  UNL1        0.0590
     12 C          62.6117   80.1690   12.5448 C.ar    1  UNL1        0.0147
     13 C          62.8931   81.4912   13.1949 C.ar    1  UNL1        0.0024
     14 C          63.4430   82.6251   12.3813 C.ar    1  UNL1        0.0136
     15 C          63.7116   82.4367   10.9177 C.ar    1  UNL1        0.0589
     16 C          64.2616   83.5707   10.1041 C.3     1  UNL1        0.0521
     17 N          63.4303   81.1146   10.2675 N.ar    1  UNL1       -0.2540
     18 N          63.6874   90.3669   13.6574 N.3     1  UNL1       -0.1841
     19 H          62.7394   90.6041   13.9497 H       1  UNL1        0.1484
     20 S          64.6187   91.1805   14.5064 S.O2    1  UNL1        0.0390
     21 O          65.6663   91.0984   13.4359 O.2     1  UNL1       -0.1576
     22 O          63.5711   91.2627   15.5768 O.2     1  UNL1       -0.1576
     23 C          65.5500   91.9942   15.3553 C.3     1  UNL1        0.1457
     24 C          65.1002   92.4916   16.6971 C.3     1  UNL1        0.0270
     25 C          66.9310   92.3103   14.8626 C.3     1  UNL1        0.0270
@<TRIPOS>BOND
     1    10    11    1
     2    11    12   ar
     3    12    13   ar
     4    13    14   ar
     5    14     1    1
     6     1     2   ar
     7     2     3   ar
     8     3     4   ar
     9     4     5   ar
    10     5     6   ar
    11     5     7    1
    12     7     8    1
    13     8    18    1
    14    18    20    1
    15    20    21    2
    16    20    22    2
    17    20    23    1
    18    23    24    1
    19    23    25    1
    20     8     9    1
    21    14    15   ar
    22    15    16    1
    23    15    17   ar
    24    17    11   ar
    25     6     1   ar
    26     9     4    1
    27    18    19    1
