@<TRIPOS>MOLECULE
*****
 35 37 0 0 0
SMALL
GASTEIGER

@<TRIPOS>ATOM
      1 C          64.2666   88.9108   15.1235 C.ar    1  UNL1        0.0505
      2 C          63.5171   89.1622   16.3983 C.ar    1  UNL1        0.0170
      3 C          62.8759   88.0200   17.1290 C.ar    1  UNL1        0.0307
      4 C          62.9841   86.6263   16.5850 C.ar    1  UNL1        0.1402
      5 F          62.3428   85.4840   17.3157 F       1  UNL1       -0.2044
      6 C          63.7336   86.3750   15.3102 C.ar    1  UNL1        0.0528
      7 C          64.3749   87.5172   14.5795 C.ar    1  UNL1        0.0167
      8 C          63.8418   84.9812   14.7661 C.3     1  UNL1        0.2223
      9 C          64.0596   84.7090   16.2251 C.3     1  UNL1        0.0607
     10 C          63.5865   85.7375   13.4962 C.3     1  UNL1        0.1959
     11 O          63.5150   85.0055   12.1889 O.3     1  UNL1       -0.3357
     12 C          63.6989   83.5172   12.1515 C.3     1  UNL1        0.2740
     13 C          63.8071   82.1236   11.6076 C.3     1  UNL1        0.0512
     14 C          63.9542   82.7610   13.4215 C.2     1  UNL1        0.3217
     15 N          64.1381   81.2728   13.3843 N.pl3   1  UNL1       -0.2480
     16 N          64.0257   83.4930   14.7289 N.2     1  UNL1       -0.0692
     17 H          64.0912   80.7924   12.5263 H       1  UNL1        0.2882
     18 H          64.3057   80.7765   14.2178 H       1  UNL1        0.2882
     19 C          63.4811   83.7895   10.6926 C.3     1  UNL1        0.4305
     20 F          63.2633   84.0617    9.2336 F       1  UNL1       -0.1670
     21 F          64.8183   83.1858   10.3803 F       1  UNL1       -0.1670
     22 F          62.1439   84.3931   11.0049 F       1  UNL1       -0.1670
     23 C          64.1445   90.7871   13.3306 C.2     1  UNL1        0.2684
     24 O          62.7397   90.3788   12.9990 O.2     1  UNL1       -0.2681
     25 N          64.9079   90.0532   14.3928 N.am    1  UNL1       -0.2791
     26 H          65.8299   90.3212   14.6104 H       1  UNL1        0.1552
     27 C          63.6182   91.1799   10.4033 C.3     1  UNL1        0.0539
     28 C          64.5226   92.1258   11.1363 C.ar    1  UNL1        0.0822
     29 N          65.1639   93.2681   10.4056 N.ar    1  UNL1       -0.2361
     30 C          66.0683   94.2141   11.1386 C.ar    1  UNL1        0.1679
     31 C          66.3314   94.0177   12.6022 C.ar    1  UNL1        0.1285
     32 N          65.6902   92.8754   13.3328 N.ar    1  UNL1       -0.2357
     33 C          64.7857   91.9295   12.5998 C.ar    1  UNL1        0.1483
     34 C          66.7096   95.3564   10.4078 C.1     1  UNL1        0.1214
     35 N          67.3509   96.4987    9.6772 N.1     1  UNL1       -0.1892
@<TRIPOS>BOND
     1    27    28    1
     2    28    29   ar
     3    29    30   ar
     4    30    34    1
     5    34    35    3
     6    30    31   ar
     7    31    32   ar
     8    32    33   ar
     9    33    23    1
    10    23    24    2
    11    23    25   am
    12    25     1    1
    13     1     2   ar
    14     2     3   ar
    15     3     4   ar
    16     4     5    1
    17     4     6   ar
    18     6     8    1
    19     8     9    1
    20     8    10    1
    21    10    11    1
    22    11    12    1
    23    12    13    1
    24    12    19    1
    25    19    20    1
    26    19    21    1
    27    19    22    1
    28    12    14    1
    29    14    15    1
    30    14    16    2
    31     6     7   ar
    32    33    28   ar
    33     7     1   ar
    34    16     8    1
    35    25    26    1
    36    15    17    1
    37    15    18    1
@<TRIPOS>MOLECULE
*****
 35 37 0 0 0
SMALL
GASTEIGER

@<TRIPOS>ATOM
      1 C          63.5578   86.4803   15.0074 C.ar    1  UNL1        0.0505
      2 C          63.1764   86.7096   16.4399 C.ar    1  UNL1        0.0170
      3 C          63.1613   88.1016   16.9984 C.ar    1  UNL1        0.0307
      4 C          63.5276   89.2643   16.1244 C.ar    1  UNL1        0.1402
      5 F          63.5125   90.6565   16.6829 F       1  UNL1       -0.2044
      6 C          63.9090   89.0350   14.6920 C.ar    1  UNL1        0.0528
      7 C          63.9241   87.6430   14.1335 C.ar    1  UNL1        0.0167
      8 C          64.2754   90.1978   13.8180 C.3     1  UNL1        0.2223
      9 C          63.0196   89.7438   13.1347 C.3     1  UNL1        0.0607
     10 C          65.4039   90.2480   14.8049 C.3     1  UNL1        0.1959
     11 O          66.4626   91.3033   14.6805 O.3     1  UNL1       -0.3357
     12 C          66.3928   92.3084   13.5692 C.3     1  UNL1        0.2740
     13 C          66.7591   93.4711   12.6952 C.3     1  UNL1        0.0512
     14 C          65.2643   92.2582   12.5823 C.2     1  UNL1        0.3217
     15 N          65.1944   93.2632   11.4710 N.pl3   1  UNL1       -0.2480
     16 N          64.2055   91.2029   12.7067 N.2     1  UNL1       -0.0692
     17 H          65.8893   93.9559   11.3893 H       1  UNL1        0.2882
     18 H          64.4537   93.2302   10.8234 H       1  UNL1        0.2882
     19 C          67.6486   92.7624   14.2525 C.3     1  UNL1        0.4305
     20 F          68.9043   93.2165   14.9359 F       1  UNL1       -0.1670
     21 F          66.8833   93.8612   14.9288 F       1  UNL1       -0.1670
     22 F          68.4137   91.6637   13.5763 F       1  UNL1       -0.1670
     23 C          62.8324   84.7805   13.1813 C.2     1  UNL1        0.2684
     24 O          62.0768   85.8650   12.4721 O.2     1  UNL1       -0.2681
     25 N          63.5729   85.0881   14.4490 N.am    1  UNL1       -0.2791
     26 H          64.0688   84.3764   14.9144 H       1  UNL1        0.1552
     27 C          63.6338   84.3177   10.3276 C.3     1  UNL1        0.0539
     28 C          63.2482   83.1570   11.1960 C.ar    1  UNL1        0.0822
     29 N          63.2632   81.7649   10.6376 N.ar    1  UNL1       -0.2361
     30 C          62.8776   80.6043   11.5060 C.ar    1  UNL1        0.1679
     31 C          62.4769   80.8357   12.9328 C.ar    1  UNL1        0.1285
     32 N          62.4618   82.2277   13.4912 N.ar    1  UNL1       -0.2357
     33 C          62.8475   83.3884   12.6228 C.ar    1  UNL1        0.1483
     34 C          62.8927   79.2121   10.9475 C.1     1  UNL1        0.1214
     35 N          62.9077   77.8201   10.3891 N.1     1  UNL1       -0.1892
@<TRIPOS>BOND
     1    27    28    1
     2    28    29   ar
     3    29    30   ar
     4    30    34    1
     5    34    35    3
     6    30    31   ar
     7    31    32   ar
     8    32    33   ar
     9    33    23    1
    10    23    24    2
    11    23    25   am
    12    25     1    1
    13     1     2   ar
    14     2     3   ar
    15     3     4   ar
    16     4     5    1
    17     4     6   ar
    18     6     8    1
    19     8     9    1
    20     8    10    1
    21    10    11    1
    22    11    12    1
    23    12    13    1
    24    12    19    1
    25    19    20    1
    26    19    21    1
    27    19    22    1
    28    12    14    1
    29    14    15    1
    30    14    16    2
    31     6     7   ar
    32    33    28   ar
    33     7     1   ar
    34    16     8    1
    35    25    26    1
    36    15    17    1
    37    15    18    1
@<TRIPOS>MOLECULE
*****
 35 37 0 0 0
SMALL
GASTEIGER

@<TRIPOS>ATOM
      1 C          62.5990   89.5832   11.5036 C.ar    1  UNL1        0.0505
      2 C          61.2789   90.0645   10.9785 C.ar    1  UNL1        0.0170
      3 C          60.3236   89.0946   10.3488 C.ar    1  UNL1        0.0307
      4 C          60.6883   87.6434   10.2443 C.ar    1  UNL1        0.1402
      5 F          59.7329   86.6734    9.6146 F       1  UNL1       -0.2044
      6 C          62.0083   87.1621   10.7695 C.ar    1  UNL1        0.0528
      7 C          62.9637   88.1320   11.3991 C.ar    1  UNL1        0.0167
      8 C          62.3730   85.7108   10.6649 C.3     1  UNL1        0.2223
      9 C          62.4606   86.1061    9.2206 C.3     1  UNL1        0.0607
     10 C          62.1588   85.8195   12.1455 C.3     1  UNL1        0.1959
     11 O          62.3396   84.6143   13.0200 O.3     1  UNL1       -0.3357
     12 C          62.7347   83.3003   12.4138 C.3     1  UNL1        0.2740
     13 C          63.0994   81.8491   12.3092 C.3     1  UNL1        0.0512
     14 C          62.9490   83.1916   10.9332 C.2     1  UNL1        0.3217
     15 N          63.3441   81.8778   10.3270 N.pl3   1  UNL1       -0.2480
     16 N          62.7681   84.3969   10.0587 N.2     1  UNL1       -0.0692
     17 H          63.4628   81.0867   10.9009 H       1  UNL1        0.2882
     18 H          63.4847   81.8065    9.3552 H       1  UNL1        0.2882
     19 C          62.6471   82.9050   13.8581 C.3     1  UNL1        0.4305
     20 F          62.5595   82.5097   15.3025 F       1  UNL1       -0.1670
     21 F          63.7175   83.9003   14.1955 F       1  UNL1       -0.1670
     22 F          61.5768   81.9098   13.5208 F       1  UNL1       -0.1670
     23 C          64.3507   90.1469   13.3377 C.2     1  UNL1        0.2684
     24 O          64.1917   88.7705   13.9125 O.2     1  UNL1       -0.2681
     25 N          63.5544   90.5532   12.1333 N.am    1  UNL1       -0.2791
     26 H          63.6587   91.4566   11.7561 H       1  UNL1        0.1552
     27 C          63.8900   91.0976   16.1456 C.3     1  UNL1        0.0539
     28 C          65.0757   91.5922   15.3713 C.ar    1  UNL1        0.0822
     29 N          66.0310   92.5622   16.0009 N.ar    1  UNL1       -0.2361
     30 C          67.2168   93.0567   15.2267 C.ar    1  UNL1        0.1679
     31 C          67.4471   92.5814   13.8228 C.ar    1  UNL1        0.1285
     32 N          66.4918   91.6114   13.1932 N.ar    1  UNL1       -0.2357
     33 C          65.3061   91.1169   13.9674 C.ar    1  UNL1        0.1483
     34 C          68.1721   94.0267   15.8564 C.1     1  UNL1        0.1214
     35 N          69.1274   94.9967   16.4860 N.1     1  UNL1       -0.1892
@<TRIPOS>BOND
     1    27    28    1
     2    28    29   ar
     3    29    30   ar
     4    30    34    1
     5    34    35    3
     6    30    31   ar
     7    31    32   ar
     8    32    33   ar
     9    33    23    1
    10    23    24    2
    11    23    25   am
    12    25     1    1
    13     1     2   ar
    14     2     3   ar
    15     3     4   ar
    16     4     5    1
    17     4     6   ar
    18     6     8    1
    19     8     9    1
    20     8    10    1
    21    10    11    1
    22    11    12    1
    23    12    13    1
    24    12    19    1
    25    19    20    1
    26    19    21    1
    27    19    22    1
    28    12    14    1
    29    14    15    1
    30    14    16    2
    31     6     7   ar
    32    33    28   ar
    33     7     1   ar
    34    16     8    1
    35    25    26    1
    36    15    17    1
    37    15    18    1
@<TRIPOS>MOLECULE
*****
 35 37 0 0 0
SMALL
GASTEIGER

@<TRIPOS>ATOM
      1 C          64.2781   88.7644   15.1759 C.ar    1  UNL1        0.0505
      2 C          63.4258   88.8769   16.4051 C.ar    1  UNL1        0.0170
      3 C          62.8561   87.6423   17.0383 C.ar    1  UNL1        0.0307
      4 C          63.1387   86.2951   16.4423 C.ar    1  UNL1        0.1402
      5 F          62.5690   85.0603   17.0756 F       1  UNL1       -0.2044
      6 C          63.9910   86.1826   15.2131 C.ar    1  UNL1        0.0528
      7 C          64.5607   87.4173   14.5799 C.ar    1  UNL1        0.0167
      8 C          64.2736   84.8354   14.6171 C.3     1  UNL1        0.2223
      9 C          65.6390   85.4503   14.5301 C.3     1  UNL1        0.0607
     10 C          62.8101   84.6883   14.9112 C.3     1  UNL1        0.1959
     11 O          62.1033   83.4077   14.5790 O.3     1  UNL1       -0.3357
     12 C          62.8601   82.2740   13.9528 C.3     1  UNL1        0.2740
     13 C          63.1427   80.9268   13.3568 C.3     1  UNL1        0.0512
     14 C          64.3236   82.4210   13.6587 C.2     1  UNL1        0.3217
     15 N          65.0805   81.2875   13.0326 N.pl3   1  UNL1       -0.2480
     16 N          65.0304   83.7018   13.9910 N.2     1  UNL1       -0.0692
     17 H          64.6167   80.4469   12.8145 H       1  UNL1        0.2882
     18 H          66.0410   81.3840   12.8396 H       1  UNL1        0.2882
     19 C          61.4947   81.6591   14.0398 C.3     1  UNL1        0.4305
     20 F          60.1293   81.0441   14.1268 F       1  UNL1       -0.1670
     21 F          61.8816   80.6524   12.9972 F       1  UNL1       -0.1670
     22 F          61.1079   82.6657   15.0824 F       1  UNL1       -0.1670
     23 C          64.2047   90.5789   13.3179 C.2     1  UNL1        0.2684
     24 O          62.9919   89.9240   12.7262 O.2     1  UNL1       -0.2681
     25 N          64.8478   89.9992   14.5427 N.am    1  UNL1       -0.2791
     26 H          65.6438   90.4291   14.9311 H       1  UNL1        0.1552
     27 C          63.5853   91.2179   10.4529 C.3     1  UNL1        0.0539
     28 C          64.4647   92.1331   11.2522 C.ar    1  UNL1        0.0822
     29 N          65.0344   93.3678   10.6191 N.ar    1  UNL1       -0.2361
     30 C          65.9139   94.2831   11.4184 C.ar    1  UNL1        0.1679
     31 C          66.2236   93.9636   12.8509 C.ar    1  UNL1        0.1285
     32 N          65.6539   92.7289   13.4840 N.ar    1  UNL1       -0.2357
     33 C          64.7745   91.8137   12.6847 C.ar    1  UNL1        0.1483
     34 C          66.4836   95.5178   10.7852 C.1     1  UNL1        0.1214
     35 N          67.0533   96.7525   10.1520 N.1     1  UNL1       -0.1892
@<TRIPOS>BOND
     1    27    28    1
     2    28    29   ar
     3    29    30   ar
     4    30    34    1
     5    34    35    3
     6    30    31   ar
     7    31    32   ar
     8    32    33   ar
     9    33    23    1
    10    23    24    2
    11    23    25   am
    12    25     1    1
    13     1     2   ar
    14     2     3   ar
    15     3     4   ar
    16     4     5    1
    17     4     6   ar
    18     6     8    1
    19     8     9    1
    20     8    10    1
    21    10    11    1
    22    11    12    1
    23    12    13    1
    24    12    19    1
    25    19    20    1
    26    19    21    1
    27    19    22    1
    28    12    14    1
    29    14    15    1
    30    14    16    2
    31     6     7   ar
    32    33    28   ar
    33     7     1   ar
    34    16     8    1
    35    25    26    1
    36    15    17    1
    37    15    18    1
@<TRIPOS>MOLECULE
*****
 35 37 0 0 0
SMALL
GASTEIGER

@<TRIPOS>ATOM
      1 C          63.9437   89.1408   14.5967 C.ar    1  UNL1        0.0505
      2 C          63.5463   89.5553   15.9824 C.ar    1  UNL1        0.0170
      3 C          63.2137   88.5147   17.0102 C.ar    1  UNL1        0.0307
      4 C          63.2784   87.0595   16.6522 C.ar    1  UNL1        0.1402
      5 F          62.9458   86.0188   17.6801 F       1  UNL1       -0.2044
      6 C          63.6758   86.6450   15.2665 C.ar    1  UNL1        0.0528
      7 C          64.0084   87.6856   14.2387 C.ar    1  UNL1        0.0167
      8 C          63.7405   85.1897   14.9086 C.3     1  UNL1        0.2223
      9 C          63.8303   85.0947   16.4029 C.3     1  UNL1        0.0607
     10 C          63.6283   85.7901   13.5386 C.3     1  UNL1        0.1959
     11 O          63.6119   84.9022   12.3297 O.3     1  UNL1       -0.3357
     12 C          63.7078   83.4140   12.4908 C.3     1  UNL1        0.2740
     13 C          63.7726   81.9588   12.1330 C.3     1  UNL1        0.0512
     14 C          63.8201   82.8136   13.8608 C.2     1  UNL1        0.3217
     15 N          63.9160   81.3254   14.0220 N.pl3   1  UNL1       -0.2480
     16 N          63.8364   83.7015   15.0698 N.2     1  UNL1       -0.0692
     17 H          63.9052   80.7426   13.2285 H       1  UNL1        0.2882
     18 H          63.9896   80.9314   14.9212 H       1  UNL1        0.2882
     19 C          63.6181   83.5090   10.9965 C.3     1  UNL1        0.4305
     20 F          63.5283   83.6040    9.5022 F       1  UNL1       -0.1670
     21 F          62.8526   84.7927   11.1241 F       1  UNL1       -0.1670
     22 F          64.3836   82.2254   10.8690 F       1  UNL1       -0.1670
     23 C          65.2734   91.2564   13.8854 C.2     1  UNL1        0.2684
     24 O          65.9380   91.2907   15.2298 O.2     1  UNL1       -0.2681
     25 N          64.2763   90.1815   13.5689 N.am    1  UNL1       -0.2791
     26 H          63.8402   90.1590   12.6865 H       1  UNL1        0.1552
     27 C          66.9097   93.6516   14.6509 C.3     1  UNL1        0.0539
     28 C          66.4242   93.4947   13.2404 C.ar    1  UNL1        0.0822
     29 N          66.7568   94.5353   12.2126 N.ar    1  UNL1       -0.2361
     30 C          66.2713   94.3784   10.8020 C.ar    1  UNL1        0.1679
     31 C          65.4532   93.1809   10.4193 C.ar    1  UNL1        0.1285
     32 N          65.1206   92.1403   11.4470 N.ar    1  UNL1       -0.2357
     33 C          65.6061   92.2972   12.8576 C.ar    1  UNL1        0.1483
     34 C          66.6040   95.4192    9.7742 C.1     1  UNL1        0.1214
     35 N          66.9365   96.4598    8.7464 N.1     1  UNL1       -0.1892
@<TRIPOS>BOND
     1    27    28    1
     2    28    29   ar
     3    29    30   ar
     4    30    34    1
     5    34    35    3
     6    30    31   ar
     7    31    32   ar
     8    32    33   ar
     9    33    23    1
    10    23    24    2
    11    23    25   am
    12    25     1    1
    13     1     2   ar
    14     2     3   ar
    15     3     4   ar
    16     4     5    1
    17     4     6   ar
    18     6     8    1
    19     8     9    1
    20     8    10    1
    21    10    11    1
    22    11    12    1
    23    12    13    1
    24    12    19    1
    25    19    20    1
    26    19    21    1
    27    19    22    1
    28    12    14    1
    29    14    15    1
    30    14    16    2
    31     6     7   ar
    32    33    28   ar
    33     7     1   ar
    34    16     8    1
    35    25    26    1
    36    15    17    1
    37    15    18    1
@<TRIPOS>MOLECULE
*****
 35 37 0 0 0
SMALL
GASTEIGER

@<TRIPOS>ATOM
      1 C          62.1366   87.5929   11.1082 C.ar    1  UNL1        0.0505
      2 C          61.4116   88.1776    9.9324 C.ar    1  UNL1        0.0170
      3 C          61.5064   89.6473    9.6480 C.ar    1  UNL1        0.0307
      4 C          62.3261   90.5323   10.5394 C.ar    1  UNL1        0.1402
      5 F          62.4209   92.0021   10.2550 F       1  UNL1       -0.2044
      6 C          63.0511   89.9476   11.7152 C.ar    1  UNL1        0.0528
      7 C          62.9564   88.4779   11.9996 C.ar    1  UNL1        0.0167
      8 C          63.8709   90.8327   12.6066 C.3     1  UNL1        0.2223
      9 C          63.1598   90.0096   13.6395 C.3     1  UNL1        0.0607
     10 C          64.2973   91.3484   11.2642 C.3     1  UNL1        0.1959
     11 O          65.2966   92.4633   11.1719 O.3     1  UNL1       -0.3357
     12 C          65.8693   93.0625   12.4221 C.3     1  UNL1        0.2740
     13 C          66.6891   93.9476   13.3135 C.3     1  UNL1        0.0512
     14 C          65.4429   92.5469   13.7645 C.2     1  UNL1        0.3217
     15 N          66.0156   93.1460   15.0147 N.pl3   1  UNL1       -0.2480
     16 N          64.4436   91.4319   13.8568 N.2     1  UNL1       -0.0692
     17 H          66.6714   93.8778   14.9541 H       1  UNL1        0.2882
     18 H          65.7357   92.8075   15.8957 H       1  UNL1        0.2882
     19 C          66.5805   93.8856   11.3892 C.3     1  UNL1        0.4305
     20 F          67.2917   94.7087   10.3563 F       1  UNL1       -0.1670
     21 F          65.9571   95.1290   11.9508 F       1  UNL1       -0.1670
     22 F          67.2039   92.6423   10.8276 F       1  UNL1       -0.1670
     23 C          62.8386   85.5230   12.5128 C.2     1  UNL1        0.2684
     24 O          63.7302   86.3926   13.3487 O.2     1  UNL1       -0.2681
     25 N          62.0418   86.1231   11.3925 N.am    1  UNL1       -0.2791
     26 H          61.4567   85.5523   10.8439 H       1  UNL1        0.1552
     27 C          63.7537   83.5359   10.4599 C.3     1  UNL1        0.0539
     28 C          63.2014   83.0597   11.7707 C.ar    1  UNL1        0.0822
     29 N          63.1066   81.5900   12.0551 N.ar    1  UNL1       -0.2361
     30 C          62.5542   81.1138   13.3659 C.ar    1  UNL1        0.1679
     31 C          62.0967   82.1073   14.3923 C.ar    1  UNL1        0.1285
     32 N          62.1915   83.5770   14.1079 N.ar    1  UNL1       -0.2357
     33 C          62.7438   84.0532   12.7971 C.ar    1  UNL1        0.1483
     34 C          62.4594   79.6440   13.6503 C.1     1  UNL1        0.1214
     35 N          62.3647   78.1743   13.9346 N.1     1  UNL1       -0.1892
@<TRIPOS>BOND
     1    27    28    1
     2    28    29   ar
     3    29    30   ar
     4    30    34    1
     5    34    35    3
     6    30    31   ar
     7    31    32   ar
     8    32    33   ar
     9    33    23    1
    10    23    24    2
    11    23    25   am
    12    25     1    1
    13     1     2   ar
    14     2     3   ar
    15     3     4   ar
    16     4     5    1
    17     4     6   ar
    18     6     8    1
    19     8     9    1
    20     8    10    1
    21    10    11    1
    22    11    12    1
    23    12    13    1
    24    12    19    1
    25    19    20    1
    26    19    21    1
    27    19    22    1
    28    12    14    1
    29    14    15    1
    30    14    16    2
    31     6     7   ar
    32    33    28   ar
    33     7     1   ar
    34    16     8    1
    35    25    26    1
    36    15    17    1
    37    15    18    1
@<TRIPOS>MOLECULE
*****
 35 37 0 0 0
SMALL
GASTEIGER

@<TRIPOS>ATOM
      1 C          63.5584   86.1233   15.1899 C.ar    1  UNL1        0.0505
      2 C          63.1069   86.3236   16.6063 C.ar    1  UNL1        0.0170
      3 C          63.0829   87.7017   17.1981 C.ar    1  UNL1        0.0307
      4 C          63.5103   88.8795   16.3735 C.ar    1  UNL1        0.1402
      5 F          63.4863   90.2577   16.9653 F       1  UNL1       -0.2044
      6 C          63.9618   88.6792   14.9572 C.ar    1  UNL1        0.0528
      7 C          63.9858   87.3012   14.3654 C.ar    1  UNL1        0.0167
      8 C          64.3892   89.8572   14.1326 C.3     1  UNL1        0.2223
      9 C          65.2203   90.0835   15.3606 C.3     1  UNL1        0.0607
     10 C          63.4097   89.2218   13.1910 C.3     1  UNL1        0.1959
     11 O          63.1462   89.8429   11.8513 O.3     1  UNL1       -0.3357
     12 C          63.8623   91.0994   11.4532 C.3     1  UNL1        0.2740
     13 C          64.2897   92.2773   10.6287 C.3     1  UNL1        0.0512
     14 C          64.8418   91.7348   12.3948 C.2     1  UNL1        0.3217
     15 N          65.5579   92.9913   11.9969 N.pl3   1  UNL1       -0.2480
     16 N          65.1053   91.1137   13.7346 N.2     1  UNL1       -0.0692
     17 H          65.3850   93.3990   11.1176 H       1  UNL1        0.2882
     18 H          66.2008   93.4083   12.6150 H       1  UNL1        0.2882
     19 C          63.0312   90.8731   10.2252 C.3     1  UNL1        0.4305
     20 F          62.2000   90.6468    8.9971 F       1  UNL1       -0.1670
     21 F          62.7704   89.4619   10.6617 F       1  UNL1       -0.1670
     22 F          63.2920   92.2842    9.7887 F       1  UNL1       -0.1670
     23 C          62.7839   84.4447   13.3645 C.2     1  UNL1        0.2684
     24 O          61.9613   85.5223   12.7225 O.2     1  UNL1       -0.2681
     25 N          63.5824   84.7452   14.5981 N.am    1  UNL1       -0.2791
     26 H          64.1223   84.0379   15.0195 H       1  UNL1        0.1552
     27 C          63.5659   84.0581   10.4941 C.3     1  UNL1        0.0539
     28 C          63.1989   82.8732   11.3375 C.ar    1  UNL1        0.0822
     29 N          63.2229   81.4951   10.7458 N.ar    1  UNL1       -0.2361
     30 C          62.8559   80.3102   11.5893 C.ar    1  UNL1        0.1679
     31 C          62.4649   80.5035   13.0244 C.ar    1  UNL1        0.1285
     32 N          62.4409   81.8816   13.6161 N.ar    1  UNL1       -0.2357
     33 C          62.8079   83.0665   12.7727 C.ar    1  UNL1        0.1483
     34 C          62.8799   78.9321   10.9975 C.1     1  UNL1        0.1214
     35 N          62.9039   77.5540   10.4057 N.1     1  UNL1       -0.1892
@<TRIPOS>BOND
     1    27    28    1
     2    28    29   ar
     3    29    30   ar
     4    30    34    1
     5    34    35    3
     6    30    31   ar
     7    31    32   ar
     8    32    33   ar
     9    33    23    1
    10    23    24    2
    11    23    25   am
    12    25     1    1
    13     1     2   ar
    14     2     3   ar
    15     3     4   ar
    16     4     5    1
    17     4     6   ar
    18     6     8    1
    19     8     9    1
    20     8    10    1
    21    10    11    1
    22    11    12    1
    23    12    13    1
    24    12    19    1
    25    19    20    1
    26    19    21    1
    27    19    22    1
    28    12    14    1
    29    14    15    1
    30    14    16    2
    31     6     7   ar
    32    33    28   ar
    33     7     1   ar
    34    16     8    1
    35    25    26    1
    36    15    17    1
    37    15    18    1
@<TRIPOS>MOLECULE
*****
 35 37 0 0 0
SMALL
GASTEIGER

@<TRIPOS>ATOM
      1 C          62.9093   88.0555   11.7992 C.ar    1  UNL1        0.0505
      2 C          62.5842   88.7872   10.5308 C.ar    1  UNL1        0.0170
      3 C          62.8541   90.2588   10.4236 C.ar    1  UNL1        0.0307
      4 C          63.4491   90.9986   11.5849 C.ar    1  UNL1        0.1402
      5 F          63.7190   92.4703   11.4777 F       1  UNL1       -0.2044
      6 C          63.7742   90.2669   12.8533 C.ar    1  UNL1        0.0528
      7 C          63.5043   88.7953   12.9604 C.ar    1  UNL1        0.0167
      8 C          64.3693   91.0068   14.0145 C.3     1  UNL1        0.2223
      9 C          62.9613   90.8417   14.5048 C.3     1  UNL1        0.0607
     10 C          65.5706   90.9149   13.1211 C.3     1  UNL1        0.1959
     11 O          66.8780   91.5056   13.5590 O.3     1  UNL1       -0.3357
     12 C          66.9840   92.1882   14.8906 C.3     1  UNL1        0.2740
     13 C          67.5790   92.9281   16.0518 C.3     1  UNL1        0.0512
     14 C          65.7827   92.2801   15.7840 C.2     1  UNL1        0.3217
     15 N          65.8887   92.9626   17.1155 N.pl3   1  UNL1       -0.2480
     16 N          64.4753   91.6894   15.3460 N.2     1  UNL1       -0.0692
     17 H          66.7467   93.3503   17.4030 H       1  UNL1        0.2882
     18 H          65.1002   93.0229   17.7019 H       1  UNL1        0.2882
     19 C          68.3921   92.3533   14.4003 C.3     1  UNL1        0.4305
     20 F          69.8001   92.5184   13.9101 F       1  UNL1       -0.1670
     21 F          68.7777   92.9657   15.7142 F       1  UNL1       -0.1670
     22 F          68.0064   91.7409   13.0865 F       1  UNL1       -0.1670
     23 C          63.2454   85.7896   13.0252 C.2     1  UNL1        0.2684
     24 O          64.1213   86.4670   14.0371 O.2     1  UNL1       -0.2681
     25 N          62.6394   86.5838   11.9063 N.am    1  UNL1       -0.2791
     26 H          62.0644   86.1392   11.2423 H       1  UNL1        0.1552
     27 C          62.4775   84.5938   15.6673 C.3     1  UNL1        0.0539
     28 C          62.5915   83.7201   14.4534 C.ar    1  UNL1        0.0822
     29 N          62.3216   82.2485   14.5605 N.ar    1  UNL1       -0.2361
     30 C          62.4356   81.3748   13.3465 C.ar    1  UNL1        0.1679
     31 C          62.8195   81.9726   12.0255 C.ar    1  UNL1        0.1285
     32 N          63.0894   83.4442   11.9184 N.ar    1  UNL1       -0.2357
     33 C          62.9754   84.3179   13.1324 C.ar    1  UNL1        0.1483
     34 C          62.1657   79.9031   13.4537 C.1     1  UNL1        0.1214
     35 N          61.8958   78.4315   13.5608 N.1     1  UNL1       -0.1892
@<TRIPOS>BOND
     1    27    28    1
     2    28    29   ar
     3    29    30   ar
     4    30    34    1
     5    34    35    3
     6    30    31   ar
     7    31    32   ar
     8    32    33   ar
     9    33    23    1
    10    23    24    2
    11    23    25   am
    12    25     1    1
    13     1     2   ar
    14     2     3   ar
    15     3     4   ar
    16     4     5    1
    17     4     6   ar
    18     6     8    1
    19     8     9    1
    20     8    10    1
    21    10    11    1
    22    11    12    1
    23    12    13    1
    24    12    19    1
    25    19    20    1
    26    19    21    1
    27    19    22    1
    28    12    14    1
    29    14    15    1
    30    14    16    2
    31     6     7   ar
    32    33    28   ar
    33     7     1   ar
    34    16     8    1
    35    25    26    1
    36    15    17    1
    37    15    18    1
