@<TRIPOS>MOLECULE
*****
 33 37 0 0 0
SMALL
GASTEIGER

@<TRIPOS>ATOM
      1 C          62.0759   89.4448   11.0382 C.ar    1  UNL1        0.0990
      2 C          60.8063   90.1318   10.6304 C.ar    1  UNL1        0.0207
      3 C          59.8678   89.4643    9.6693 C.ar    1  UNL1        0.0032
      4 C          60.1989   88.1100    9.1161 C.ar    1  UNL1        0.0207
      5 C          59.2603   87.4426    8.1549 C.ar    1  UNL1        0.0017
      6 C          59.5914   86.0882    7.6016 C.ar    1  UNL1        0.0032
      7 C          60.8610   85.4013    8.0095 C.ar    1  UNL1        0.0385
      8 C          61.7995   86.0687    8.9706 C.ar    1  UNL1        0.1559
      9 C          61.4684   87.4230    9.5239 C.ar    1  UNL1        0.1151
     10 N          62.4069   88.0905   10.4850 N.ar    1  UNL1       -0.2408
     11 C          65.9053   93.5161   11.6681 C.ar    1  UNL1        0.1432
     12 C          65.1486   93.1720   10.4195 C.ar    1  UNL1        0.0560
     13 C          64.1569   92.0467   10.4297 C.ar    1  UNL1        0.0846
     14 N          63.9219   91.2655   11.6885 N.ar    1  UNL1       -0.2872
     15 C          63.0144   90.1122   11.9994 C.ar    1  UNL1        0.1021
     16 C          63.2103   89.7436   13.4401 C.ar    1  UNL1        0.1195
     17 N          64.2388   90.6690   14.0196 N.ar    1  UNL1       -0.2247
     18 C          64.6786   91.6096   12.9370 C.ar    1  UNL1        0.1509
     19 C          65.6703   92.7349   12.9268 C.ar    1  UNL1        0.0743
     20 O          66.8970   94.6414   11.6579 O.3     1  UNL1       -0.4726
     21 C          67.0838   95.4654   10.4184 C.3     1  UNL1        0.2373
     22 C          67.9107   94.9369    9.2840 C.3     1  UNL1        0.1894
     23 C          68.5152   92.4120    9.1899 C.3     1  UNL1        0.1743
     24 O          68.8893   93.8256    9.5234 O.3     1  UNL1       -0.3471
     25 O          63.0690   85.3817    9.3784 O.3     1  UNL1       -0.4747
     26 C          63.1162   84.5854   10.6486 C.3     1  UNL1        0.2010
     27 C          62.4286   85.0961   11.8800 C.3     1  UNL1        0.0635
     28 C          62.4758   84.2997   13.1503 C.3     1  UNL1        0.0725
     29 N          63.2106   82.9926   13.1892 N.3     1  UNL1       -0.2950
     30 C          63.8982   82.4818   11.9577 C.3     1  UNL1        0.1081
     31 C          63.8510   83.2782   10.6875 C.3     1  UNL1        0.2161
     32 F          64.5386   82.7675    9.4561 F       1  UNL1       -0.2319
     33 H          62.5327   82.2818   13.4641 H       1  UNL1        0.1233
@<TRIPOS>BOND
     1    23    24    1
     2    24    22    1
     3    22    21    1
     4    21    20    1
     5    20    11    1
     6    11    12   ar
     7    12    13   ar
     8    13    14   ar
     9    14    15   ar
    10    15     1    1
    11     1     2   ar
    12     2     3   ar
    13     3     4   ar
    14     4     5   ar
    15     5     6   ar
    16     6     7   ar
    17     7     8   ar
    18     8    25    1
    19    26    25    1
    20    26    27    1
    21    27    28    1
    22    28    29    1
    23    29    30    1
    24    30    31    1
    25    31    32    1
    26     8     9   ar
    27     9    10   ar
    28    15    16   ar
    29    16    17   ar
    30    17    18   ar
    31    18    19   ar
    32    19    11   ar
    33    18    14   ar
    34    10     1   ar
    35     9     4   ar
    36    31    26    1
    37    29    33    1
@<TRIPOS>MOLECULE
*****
 33 37 0 0 0
SMALL
GASTEIGER

@<TRIPOS>ATOM
      1 C          63.8453   89.8832   13.3740 C.ar    1  UNL1        0.0990
      2 C          63.3321   89.9989   14.7787 C.ar    1  UNL1        0.0207
      3 C          64.0390   90.8805   15.7651 C.ar    1  UNL1        0.0032
      4 C          65.2589   91.6465   15.3468 C.ar    1  UNL1        0.0207
      5 C          65.9658   92.5282   16.3333 C.ar    1  UNL1        0.0017
      6 C          67.1858   93.2942   15.9150 C.ar    1  UNL1        0.0032
      7 C          67.6989   93.1784   14.5101 C.ar    1  UNL1        0.0385
      8 C          66.9920   92.2968   13.5237 C.ar    1  UNL1        0.1559
      9 C          65.7721   91.5308   13.9421 C.ar    1  UNL1        0.1151
     10 N          65.0652   90.6492   12.9557 N.ar    1  UNL1       -0.2408
     11 C          62.6670   84.5692   11.9560 C.ar    1  UNL1        0.1432
     12 C          63.4823   85.0331   13.1265 C.ar    1  UNL1        0.0560
     13 C          63.6977   86.4997   13.3565 C.ar    1  UNL1        0.0846
     14 N          63.0977   87.5024   12.4159 N.ar    1  UNL1       -0.2872
     15 C          63.1384   89.0015   12.3875 C.ar    1  UNL1        0.1021
     16 C          62.3483   89.4643   11.1994 C.ar    1  UNL1        0.1195
     17 N          61.8192   88.2511   10.4936 N.ar    1  UNL1       -0.2247
     18 C          62.2823   87.0385   11.2454 C.ar    1  UNL1        0.1509
     19 C          62.0670   85.5720   11.0155 C.ar    1  UNL1        0.0743
     20 O          62.4516   83.1028   11.7261 O.3     1  UNL1       -0.4726
     21 C          63.5547   82.1283   12.0155 C.3     1  UNL1        0.2373
     22 C          63.5417   81.3377   13.2902 C.3     1  UNL1        0.1894
     23 C          61.1196   80.9589   14.1500 C.3     1  UNL1        0.1743
     24 O          62.4735   81.5832   14.3142 O.3     1  UNL1       -0.3471
     25 O          67.5052   92.1811   12.1190 O.3     1  UNL1       -0.4747
     26 C          67.1031   93.1936   11.0879 C.3     1  UNL1        0.2010
     27 C          66.0515   94.2140   11.4088 C.3     1  UNL1        0.0635
     28 C          65.6495   95.2265   10.3777 C.3     1  UNL1        0.0725
     29 N          66.2990   95.2186    9.0257 N.3     1  UNL1       -0.2950
     30 C          67.3506   94.1982    8.7047 C.3     1  UNL1        0.1081
     31 C          67.7527   93.1857    9.7358 C.3     1  UNL1        0.2161
     32 F          68.8042   92.1654    9.4149 F       1  UNL1       -0.2319
     33 H          66.7297   96.1347    8.9006 H       1  UNL1        0.1233
@<TRIPOS>BOND
     1    23    24    1
     2    24    22    1
     3    22    21    1
     4    21    20    1
     5    20    11    1
     6    11    12   ar
     7    12    13   ar
     8    13    14   ar
     9    14    15   ar
    10    15     1    1
    11     1     2   ar
    12     2     3   ar
    13     3     4   ar
    14     4     5   ar
    15     5     6   ar
    16     6     7   ar
    17     7     8   ar
    18     8    25    1
    19    26    25    1
    20    26    27    1
    21    27    28    1
    22    28    29    1
    23    29    30    1
    24    30    31    1
    25    31    32    1
    26     8     9   ar
    27     9    10   ar
    28    15    16   ar
    29    16    17   ar
    30    17    18   ar
    31    18    19   ar
    32    19    11   ar
    33    18    14   ar
    34    10     1   ar
    35     9     4   ar
    36    31    26    1
    37    29    33    1
@<TRIPOS>MOLECULE
*****
 33 37 0 0 0
SMALL
GASTEIGER

@<TRIPOS>ATOM
      1 C          63.5183   89.0960   12.6705 C.ar    1  UNL1        0.0990
      2 C          63.8088   88.7176   14.0926 C.ar    1  UNL1        0.0207
      3 C          64.6191   89.6330   14.9617 C.ar    1  UNL1        0.0032
      4 C          65.1390   90.9268   14.4087 C.ar    1  UNL1        0.0207
      5 C          65.9494   91.8423   15.2778 C.ar    1  UNL1        0.0017
      6 C          66.4692   93.1361   14.7248 C.ar    1  UNL1        0.0032
      7 C          66.1787   93.5144   13.3026 C.ar    1  UNL1        0.0385
      8 C          65.3684   92.5990   12.4335 C.ar    1  UNL1        0.1559
      9 C          64.8485   91.3052   12.9866 C.ar    1  UNL1        0.1151
     10 N          64.0382   90.3898   12.1175 N.ar    1  UNL1       -0.2408
     11 C          59.9528   88.8184    8.3292 C.ar    1  UNL1        0.1432
     12 C          60.5688   90.0539    8.9156 C.ar    1  UNL1        0.0560
     13 C          61.5059   89.9438   10.0817 C.ar    1  UNL1        0.0846
     14 N          61.8268   88.5981   10.6615 N.ar    1  UNL1       -0.2872
     15 C          62.7080   88.1806   11.8014 C.ar    1  UNL1        0.1021
     16 C          62.6365   86.6870   11.9195 C.ar    1  UNL1        0.1195
     17 N          61.7112   86.1814   10.8526 N.ar    1  UNL1       -0.2247
     18 C          61.2107   87.3626   10.0751 C.ar    1  UNL1        0.1509
     19 C          60.2738   87.4726    8.9091 C.ar    1  UNL1        0.0743
     20 O          59.0158   88.9284    7.1632 O.3     1  UNL1       -0.4726
     21 C          59.2964   89.9119    6.0658 C.3     1  UNL1        0.2373
     22 C          58.2001   90.7999    5.5561 C.3     1  UNL1        0.1894
     23 C          59.6782   92.4063    4.1474 C.3     1  UNL1        0.1743
     24 O          58.5193   92.1837    5.0732 O.3     1  UNL1       -0.3471
     25 O          65.0779   92.9774   11.0114 O.3     1  UNL1       -0.4747
     26 C          65.9713   93.9468   10.2958 C.3     1  UNL1        0.2010
     27 C          65.6037   95.3997   10.2331 C.3     1  UNL1        0.0635
     28 C          66.4971   96.3691    9.5175 C.3     1  UNL1        0.0725
     29 N          67.7580   95.8857    8.8646 N.3     1  UNL1       -0.2950
     30 C          68.1256   94.4327    8.9273 C.3     1  UNL1        0.1081
     31 C          67.2322   93.4633    9.6429 C.3     1  UNL1        0.2161
     32 F          67.5998   92.0104    9.7056 F       1  UNL1       -0.2319
     33 H          68.5271   96.4027    9.2907 H       1  UNL1        0.1233
@<TRIPOS>BOND
     1    23    24    1
     2    24    22    1
     3    22    21    1
     4    21    20    1
     5    20    11    1
     6    11    12   ar
     7    12    13   ar
     8    13    14   ar
     9    14    15   ar
    10    15     1    1
    11     1     2   ar
    12     2     3   ar
    13     3     4   ar
    14     4     5   ar
    15     5     6   ar
    16     6     7   ar
    17     7     8   ar
    18     8    25    1
    19    26    25    1
    20    26    27    1
    21    27    28    1
    22    28    29    1
    23    29    30    1
    24    30    31    1
    25    31    32    1
    26     8     9   ar
    27     9    10   ar
    28    15    16   ar
    29    16    17   ar
    30    17    18   ar
    31    18    19   ar
    32    19    11   ar
    33    18    14   ar
    34    10     1   ar
    35     9     4   ar
    36    31    26    1
    37    29    33    1
@<TRIPOS>MOLECULE
*****
 33 37 0 0 0
SMALL
GASTEIGER

@<TRIPOS>ATOM
      1 C          63.1809   84.9435   14.8949 C.ar    1  UNL1        0.0990
      2 C          63.2347   83.5492   15.4451 C.ar    1  UNL1        0.0207
      3 C          63.3194   82.3776   14.5124 C.ar    1  UNL1        0.0032
      4 C          63.3503   82.6003   13.0293 C.ar    1  UNL1        0.0207
      5 C          63.4350   81.4286   12.0966 C.ar    1  UNL1        0.0017
      6 C          63.4660   81.6513   10.6135 C.ar    1  UNL1        0.0032
      7 C          63.4122   83.0457   10.0632 C.ar    1  UNL1        0.0385
      8 C          63.3275   84.2173   10.9960 C.ar    1  UNL1        0.1559
      9 C          63.2965   83.9946   12.4791 C.ar    1  UNL1        0.1151
     10 N          63.2118   85.1662   13.4118 N.ar    1  UNL1       -0.2408
     11 C          64.1217   90.4594   15.4669 C.ar    1  UNL1        0.1432
     12 C          64.3751   89.6205   14.2495 C.ar    1  UNL1        0.0560
     13 C          64.0637   88.1533   14.2716 C.ar    1  UNL1        0.0846
     14 N          63.4989   87.5251   15.5111 N.ar    1  UNL1       -0.2872
     15 C          63.0962   86.1152   15.8276 C.ar    1  UNL1        0.1021
     16 C          62.5938   86.0828   17.2406 C.ar    1  UNL1        0.1195
     17 N          62.6861   87.4726   17.7974 N.ar    1  UNL1       -0.2247
     18 C          63.2455   88.3640   16.7285 C.ar    1  UNL1        0.1509
     19 C          63.5569   89.8311   16.7064 C.ar    1  UNL1        0.0743
     20 O          64.4331   91.9265   15.4448 O.3     1  UNL1       -0.4726
     21 C          65.8554   92.3929   15.5434 C.3     1  UNL1        0.2373
     22 C          66.5723   92.8776   14.3182 C.3     1  UNL1        0.1894
     23 C          68.7224   93.3939   15.6822 C.3     1  UNL1        0.1743
     24 O          68.0489   93.1373   14.3668 O.3     1  UNL1       -0.3471
     25 O          63.2737   85.6117   10.4457 O.3     1  UNL1       -0.4747
     26 C          62.0029   86.1309    9.8411 C.3     1  UNL1        0.2010
     27 C          61.0708   86.9720   10.6619 C.3     1  UNL1        0.0635
     28 C          59.8000   87.4912   10.0573 C.3     1  UNL1        0.0725
     29 N          59.4614   87.1693    8.6319 N.3     1  UNL1       -0.2950
     30 C          60.3935   86.3282    7.8111 C.3     1  UNL1        0.1081
     31 C          61.6643   85.8090    8.4157 C.3     1  UNL1        0.2161
     32 F          62.5964   84.9679    7.5950 F       1  UNL1       -0.2319
     33 H          59.3620   88.0598    8.1446 H       1  UNL1        0.1233
@<TRIPOS>BOND
     1    23    24    1
     2    24    22    1
     3    22    21    1
     4    21    20    1
     5    20    11    1
     6    11    12   ar
     7    12    13   ar
     8    13    14   ar
     9    14    15   ar
    10    15     1    1
    11     1     2   ar
    12     2     3   ar
    13     3     4   ar
    14     4     5   ar
    15     5     6   ar
    16     6     7   ar
    17     7     8   ar
    18     8    25    1
    19    26    25    1
    20    26    27    1
    21    27    28    1
    22    28    29    1
    23    29    30    1
    24    30    31    1
    25    31    32    1
    26     8     9   ar
    27     9    10   ar
    28    15    16   ar
    29    16    17   ar
    30    17    18   ar
    31    18    19   ar
    32    19    11   ar
    33    18    14   ar
    34    10     1   ar
    35     9     4   ar
    36    31    26    1
    37    29    33    1
@<TRIPOS>MOLECULE
*****
 33 37 0 0 0
SMALL
GASTEIGER

@<TRIPOS>ATOM
      1 C          62.5903   85.7191   10.8952 C.ar    1  UNL1        0.0990
      2 C          63.0792   85.1635    9.5905 C.ar    1  UNL1        0.0207
      3 C          63.3240   83.6906    9.4472 C.ar    1  UNL1        0.0032
      4 C          63.0799   82.7733   10.6087 C.ar    1  UNL1        0.0207
      5 C          63.3248   81.3003   10.4653 C.ar    1  UNL1        0.0017
      6 C          63.0807   80.3830   11.6268 C.ar    1  UNL1        0.0032
      7 C          62.5917   80.9386   12.9315 C.ar    1  UNL1        0.0385
      8 C          62.3469   82.4115   13.0748 C.ar    1  UNL1        0.1559
      9 C          62.5910   83.3288   11.9134 C.ar    1  UNL1        0.1151
     10 N          62.3462   84.8017   12.0566 N.ar    1  UNL1       -0.2408
     11 C          63.7153   90.3045   13.9523 C.ar    1  UNL1        0.1432
     12 C          64.2183   88.9119   14.1924 C.ar    1  UNL1        0.0560
     13 C          63.8151   87.7994   13.2706 C.ar    1  UNL1        0.0846
     14 N          62.9089   88.0795   12.1085 N.ar    1  UNL1       -0.2872
     15 C          62.3454   87.1921   11.0385 C.ar    1  UNL1        0.1021
     16 C          61.4941   88.0362   10.1370 C.ar    1  UNL1        0.1195
     17 N          61.5314   89.4453   10.6499 N.ar    1  UNL1       -0.2247
     18 C          62.4059   89.4721   11.8684 C.ar    1  UNL1        0.1509
     19 C          62.8090   90.5845   12.7902 C.ar    1  UNL1        0.0743
     20 O          64.1184   91.4169   14.8741 O.3     1  UNL1       -0.4726
     21 C          65.5665   91.7780   15.0254 C.3     1  UNL1        0.2373
     22 C          66.2802   92.4958   13.9184 C.3     1  UNL1        0.1894
     23 C          68.0026   93.4940   15.5876 C.3     1  UNL1        0.1743
     24 O          67.5998   93.1582   14.1824 O.3     1  UNL1       -0.3471
     25 O          61.8580   82.9671   14.3795 O.3     1  UNL1       -0.4747
     26 C          62.6680   83.9999   15.1055 C.3     1  UNL1        0.2010
     27 C          62.0025   84.9266   16.0793 C.3     1  UNL1        0.0635
     28 C          62.8126   85.9594   16.8053 C.3     1  UNL1        0.0725
     29 N          64.2881   86.0655   16.5576 N.3     1  UNL1       -0.2950
     30 C          64.9537   85.1387   15.5838 C.3     1  UNL1        0.1081
     31 C          64.1437   84.1059   14.8578 C.3     1  UNL1        0.2161
     32 F          64.8092   83.1792   13.8840 F       1  UNL1       -0.2319
     33 H          64.7484   85.9273   17.4573 H       1  UNL1        0.1233
@<TRIPOS>BOND
     1    23    24    1
     2    24    22    1
     3    22    21    1
     4    21    20    1
     5    20    11    1
     6    11    12   ar
     7    12    13   ar
     8    13    14   ar
     9    14    15   ar
    10    15     1    1
    11     1     2   ar
    12     2     3   ar
    13     3     4   ar
    14     4     5   ar
    15     5     6   ar
    16     6     7   ar
    17     7     8   ar
    18     8    25    1
    19    26    25    1
    20    26    27    1
    21    27    28    1
    22    28    29    1
    23    29    30    1
    24    30    31    1
    25    31    32    1
    26     8     9   ar
    27     9    10   ar
    28    15    16   ar
    29    16    17   ar
    30    17    18   ar
    31    18    19   ar
    32    19    11   ar
    33    18    14   ar
    34    10     1   ar
    35     9     4   ar
    36    31    26    1
    37    29    33    1
@<TRIPOS>MOLECULE
*****
 33 37 0 0 0
SMALL
GASTEIGER

@<TRIPOS>ATOM
      1 C          63.7096   85.3882   13.9899 C.ar    1  UNL1        0.0990
      2 C          63.3859   84.8083   15.3349 C.ar    1  UNL1        0.0207
      3 C          63.1885   85.7140   16.5142 C.ar    1  UNL1        0.0032
      4 C          63.3148   87.1995   16.3485 C.ar    1  UNL1        0.0207
      5 C          63.1175   88.1051   17.5279 C.ar    1  UNL1        0.0017
      6 C          63.2438   89.5906   17.3622 C.ar    1  UNL1        0.0032
      7 C          63.5675   90.1704   16.0172 C.ar    1  UNL1        0.0385
      8 C          63.7649   89.2647   14.8379 C.ar    1  UNL1        0.1559
      9 C          63.6385   87.7793   15.0035 C.ar    1  UNL1        0.1151
     10 N          63.8359   86.8736   13.8242 N.ar    1  UNL1       -0.2408
     11 C          62.8526   84.7564    8.4669 C.ar    1  UNL1        0.1432
     12 C          62.4543   85.9273    9.3155 C.ar    1  UNL1        0.0560
     13 C          62.7638   85.9297   10.7832 C.ar    1  UNL1        0.0846
     14 N          63.4715   84.7610   11.4024 N.ar    1  UNL1       -0.2872
     15 C          63.9069   84.4825   12.8105 C.ar    1  UNL1        0.1021
     16 C          64.5744   83.1394   12.8322 C.ar    1  UNL1        0.1195
     17 N          64.5515   82.5878   11.4375 N.ar    1  UNL1       -0.2247
     18 C          63.8698   83.5901   10.5538 C.ar    1  UNL1        0.1509
     19 C          63.5604   83.5877    9.0861 C.ar    1  UNL1        0.0743
     20 O          62.5432   84.7540    6.9992 O.3     1  UNL1       -0.4726
     21 C          61.1406   85.0004    6.5280 C.3     1  UNL1        0.2373
     22 C          60.1156   85.5467    7.4772 C.3     1  UNL1        0.1894
     23 C          59.4496   88.0504    7.6712 C.3     1  UNL1        0.1743
     24 O          59.2453   86.6955    7.0613 O.3     1  UNL1       -0.3471
     25 O          64.0886   89.8445   13.4929 O.3     1  UNL1       -0.4747
     26 C          65.0138   91.0203   13.3860 C.3     1  UNL1        0.2010
     27 C          66.0681   91.2424   14.4296 C.3     1  UNL1        0.0635
     28 C          66.9933   92.4182   14.3227 C.3     1  UNL1        0.0725
     29 N          66.8643   93.3720   13.1722 N.3     1  UNL1       -0.2950
     30 C          65.8100   93.1499   12.1285 C.3     1  UNL1        0.1081
     31 C          64.8847   91.9741   12.2354 C.3     1  UNL1        0.2161
     32 F          63.8305   91.7520   11.1918 F       1  UNL1       -0.2319
     33 H          67.7622   93.3727   12.6883 H       1  UNL1        0.1233
@<TRIPOS>BOND
     1    23    24    1
     2    24    22    1
     3    22    21    1
     4    21    20    1
     5    20    11    1
     6    11    12   ar
     7    12    13   ar
     8    13    14   ar
     9    14    15   ar
    10    15     1    1
    11     1     2   ar
    12     2     3   ar
    13     3     4   ar
    14     4     5   ar
    15     5     6   ar
    16     6     7   ar
    17     7     8   ar
    18     8    25    1
    19    26    25    1
    20    26    27    1
    21    27    28    1
    22    28    29    1
    23    29    30    1
    24    30    31    1
    25    31    32    1
    26     8     9   ar
    27     9    10   ar
    28    15    16   ar
    29    16    17   ar
    30    17    18   ar
    31    18    19   ar
    32    19    11   ar
    33    18    14   ar
    34    10     1   ar
    35     9     4   ar
    36    31    26    1
    37    29    33    1
