@<TRIPOS>MOLECULE
*****
 31 34 0 0 0
SMALL
GASTEIGER

@<TRIPOS>ATOM
      1 N          63.6762   85.4468   13.3945 N.pl3   1  UNL1       -0.3044
      2 C          64.4245   85.7299   14.6632 C.3     1  UNL1        0.1123
      3 C          64.7024   87.1468   15.0698 C.3     1  UNL1        0.1150
      4 N          64.2320   88.2805   14.2076 N.pl3   1  UNL1       -0.2739
      5 C          63.4837   87.9973   12.9389 C.3     1  UNL1        0.0954
      6 C          63.0132   89.1310   12.0766 C.3     1  UNL1        0.0233
      7 C          63.2057   86.5805   12.5323 C.3     1  UNL1        0.1106
      8 C          62.8423   81.1962   12.1748 C.ar    1  UNL1        0.1383
      9 C          63.5356   82.1269   11.2245 C.ar    1  UNL1        0.0381
     10 C          63.8136   83.5438   11.6311 C.ar    1  UNL1        0.0173
     11 C          63.3982   84.0299   12.9879 C.ar    1  UNL1        0.0441
     12 C          62.7049   83.0992   13.9382 C.ar    1  UNL1       -0.0055
     13 C          62.2895   83.5854   15.2952 C.3     1  UNL1        0.0324
     14 C          62.4270   81.6824   13.5317 C.ar    1  UNL1        0.0339
     15 O          62.5644   79.7794   11.7683 O.3     1  UNL1       -0.4755
     16 C          62.9284   77.8542   10.0621 C.3     1  UNL1        0.0512
     17 C          62.8915   79.3200   10.3783 C.3     1  UNL1        0.2055
     18 C          64.5100   89.6973   14.6142 C.ar    1  UNL1        0.2593
     19 N          63.5619   90.6103   15.3336 N.ar    1  UNL1       -0.0399
     20 O          64.2508   91.9272   15.5368 O.2     1  UNL1       -0.3341
     21 C          65.6246   91.8281   14.9429 C.ar    1  UNL1        0.2534
     22 N          65.7848   90.4500   14.3727 N.ar    1  UNL1       -0.1764
     23 C          66.6570   92.9161   14.9227 C.3     1  UNL1        0.1281
     24 C          67.3203   92.3090   16.1233 C.3     1  UNL1        0.0272
     25 C          68.3527   93.3969   16.1032 C.3     1  UNL1        0.0043
     26 C          67.6894   94.0041   14.9025 C.3     1  UNL1        0.0272
     27 N          65.9937   93.5232   13.7221 N.am    1  UNL1       -0.2997
     28 C          66.4942   93.2005   12.3454 C.2     1  UNL1        0.2232
     29 C          65.8310   93.8076   11.1448 C.3     1  UNL1        0.0946
     30 O          67.6580   92.2706   12.1693 O.2     1  UNL1       -0.2751
     31 H          65.2299   94.1335   13.8377 H       1  UNL1        0.1498
@<TRIPOS>BOND
     1    16    17    1
     2    17    15    1
     3    15     8    1
     4     8     9   ar
     5     9    10   ar
     6    10    11   ar
     7    11     1    1
     8     1     2    1
     9     2     3    1
    10     3     4    1
    11     4    18    1
    12    18    19   ar
    13    19    20   ar
    14    20    21   ar
    15    21    23    1
    16    23    27    1
    17    27    28   am
    18    28    29    1
    19    28    30    2
    20    23    24    1
    21    24    25    1
    22    25    26    1
    23    21    22   ar
    24     4     5    1
    25     5     6    1
    26     5     7    1
    27    11    12   ar
    28    12    13    1
    29    12    14   ar
    30    14     8   ar
    31     7     1    1
    32    22    18   ar
    33    26    23    1
    34    27    31    1
@<TRIPOS>MOLECULE
*****
 31 34 0 0 0
SMALL
GASTEIGER

@<TRIPOS>ATOM
      1 N          63.4233   85.0524   13.1216 N.pl3   1  UNL1       -0.3044
      2 C          64.2156   85.4883   14.3183 C.3     1  UNL1        0.1123
      3 C          64.4665   86.9471   14.5609 C.3     1  UNL1        0.1150
      4 N          63.9250   87.9700   13.6068 N.pl3   1  UNL1       -0.2739
      5 C          63.1327   87.5341   12.4101 C.3     1  UNL1        0.0954
      6 C          62.5912   88.5571   11.4559 C.3     1  UNL1        0.0233
      7 C          62.8818   86.0753   12.1675 C.3     1  UNL1        0.1106
      8 C          62.6707   80.6758   12.3938 C.ar    1  UNL1        0.1383
      9 C          62.1117   81.3397   13.6172 C.ar    1  UNL1        0.0381
     10 C          62.3626   82.7985   13.8598 C.ar    1  UNL1        0.0173
     11 C          63.1724   83.5935   12.8790 C.ar    1  UNL1        0.0441
     12 C          63.7314   82.9297   11.6556 C.ar    1  UNL1       -0.0055
     13 C          64.5414   83.7247   10.6747 C.3     1  UNL1        0.0324
     14 C          63.4806   81.4708   11.4130 C.ar    1  UNL1        0.0339
     15 O          62.4198   79.2170   12.1512 O.3     1  UNL1       -0.4755
     16 C          62.5723   79.3727    9.5623 C.3     1  UNL1        0.0512
     17 C          62.7837   78.6026   10.8321 C.3     1  UNL1        0.2055
     18 C          64.1759   89.4289   13.8494 C.ar    1  UNL1        0.2593
     19 N          63.6720   90.2284   15.0142 N.ar    1  UNL1       -0.0399
     20 O          64.1594   91.6380   14.8545 O.2     1  UNL1       -0.3341
     21 C          64.9645   91.7097   13.5909 C.ar    1  UNL1        0.2534
     22 N          64.9746   90.3444   12.9697 N.ar    1  UNL1       -0.1764
     23 C          65.6406   92.9320   13.0444 C.3     1  UNL1        0.1281
     24 C          65.0607   92.6476   11.6906 C.3     1  UNL1        0.0272
     25 C          65.7368   93.8699   11.1441 C.3     1  UNL1        0.0043
     26 C          66.3168   94.1544   12.4979 C.3     1  UNL1        0.0272
     27 N          66.2206   93.2165   14.3982 N.am    1  UNL1       -0.2997
     28 C          67.6306   92.8109   14.7103 C.2     1  UNL1        0.2232
     29 C          68.2105   93.0953   16.0641 C.3     1  UNL1        0.0946
     30 O          68.4606   92.1209   13.6687 O.2     1  UNL1       -0.2751
     31 H          65.6758   93.6693   15.0818 H       1  UNL1        0.1498
@<TRIPOS>BOND
     1    16    17    1
     2    17    15    1
     3    15     8    1
     4     8     9   ar
     5     9    10   ar
     6    10    11   ar
     7    11     1    1
     8     1     2    1
     9     2     3    1
    10     3     4    1
    11     4    18    1
    12    18    19   ar
    13    19    20   ar
    14    20    21   ar
    15    21    23    1
    16    23    27    1
    17    27    28   am
    18    28    29    1
    19    28    30    2
    20    23    24    1
    21    24    25    1
    22    25    26    1
    23    21    22   ar
    24     4     5    1
    25     5     6    1
    26     5     7    1
    27    11    12   ar
    28    12    13    1
    29    12    14   ar
    30    14     8   ar
    31     7     1    1
    32    22    18   ar
    33    26    23    1
    34    27    31    1
@<TRIPOS>MOLECULE
*****
 31 34 0 0 0
SMALL
GASTEIGER

@<TRIPOS>ATOM
      1 N          63.4013   85.8277   13.5648 N.pl3   1  UNL1       -0.3044
      2 C          64.2470   86.2632   14.7246 C.3     1  UNL1        0.1123
      3 C          64.6471   87.7023   14.8624 C.3     1  UNL1        0.1150
      4 N          64.2016   88.7058   13.8404 N.pl3   1  UNL1       -0.2739
      5 C          63.3560   88.2703   12.6806 C.3     1  UNL1        0.0954
      6 C          62.9105   89.2738   11.6586 C.3     1  UNL1        0.0233
      7 C          62.9559   86.8312   12.5428 C.3     1  UNL1        0.1106
      8 C          62.2009   81.5105   13.1512 C.ar    1  UNL1        0.1383
      9 C          62.7262   82.2600   11.9629 C.ar    1  UNL1        0.0381
     10 C          63.1264   83.6991   12.1007 C.ar    1  UNL1        0.0173
     11 C          63.0012   84.3886   13.4269 C.ar    1  UNL1        0.0441
     12 C          62.4759   83.6391   14.6153 C.ar    1  UNL1       -0.0055
     13 C          62.3507   84.3286   15.9416 C.3     1  UNL1        0.0324
     14 C          62.0758   82.2001   14.4774 C.ar    1  UNL1        0.0339
     15 O          61.8008   80.0715   13.0134 O.3     1  UNL1       -0.4755
     16 C          59.4869   80.0215   14.1938 C.3     1  UNL1        0.0512
     17 C          60.8635   79.4550   14.0090 C.3     1  UNL1        0.2055
     18 C          64.6018   90.1449   13.9783 C.ar    1  UNL1        0.2593
     19 N          64.4878   90.9765   15.2214 N.ar    1  UNL1       -0.0399
     20 O          65.0017   92.3506   14.9086 O.2     1  UNL1       -0.3341
     21 C          65.4333   92.3682   13.4722 C.ar    1  UNL1        0.2534
     22 N          65.1861   91.0050   12.8972 N.ar    1  UNL1       -0.1764
     23 C          66.0108   93.5427   12.7393 C.3     1  UNL1        0.1281
     24 C          65.3822   93.0576   11.4667 C.3     1  UNL1        0.0272
     25 C          65.9596   94.2321   10.7338 C.3     1  UNL1        0.0043
     26 C          66.5882   94.7172   12.0065 C.3     1  UNL1        0.0272
     27 N          66.6393   94.0278   14.0120 N.am    1  UNL1       -0.2997
     28 C          67.8740   93.3600   14.5406 C.2     1  UNL1        0.2232
     29 C          68.5026   93.8451   15.8132 C.3     1  UNL1        0.0946
     30 O          68.4803   92.2072   13.7966 O.2     1  UNL1       -0.2751
     31 H          66.2414   94.7844   14.5003 H       1  UNL1        0.1498
@<TRIPOS>BOND
     1    16    17    1
     2    17    15    1
     3    15     8    1
     4     8     9   ar
     5     9    10   ar
     6    10    11   ar
     7    11     1    1
     8     1     2    1
     9     2     3    1
    10     3     4    1
    11     4    18    1
    12    18    19   ar
    13    19    20   ar
    14    20    21   ar
    15    21    23    1
    16    23    27    1
    17    27    28   am
    18    28    29    1
    19    28    30    2
    20    23    24    1
    21    24    25    1
    22    25    26    1
    23    21    22   ar
    24     4     5    1
    25     5     6    1
    26     5     7    1
    27    11    12   ar
    28    12    13    1
    29    12    14   ar
    30    14     8   ar
    31     7     1    1
    32    22    18   ar
    33    26    23    1
    34    27    31    1
@<TRIPOS>MOLECULE
*****
 31 34 0 0 0
SMALL
GASTEIGER

@<TRIPOS>ATOM
      1 N          62.5472   88.1172   10.6147 N.pl3   1  UNL1       -0.3044
      2 C          62.6491   89.5910   10.3553 C.3     1  UNL1        0.1123
      3 C          63.2435   90.4960   11.3935 C.3     1  UNL1        0.1150
      4 N          63.7360   89.9271   12.6911 N.pl3   1  UNL1       -0.2739
      5 C          63.6341   88.4532   12.9505 C.3     1  UNL1        0.0954
      6 C          64.1266   87.8842   14.2481 C.3     1  UNL1        0.0233
      7 C          63.0397   87.5483   11.9123 C.3     1  UNL1        0.1106
      8 C          60.7641   85.4024    7.5002 C.ar    1  UNL1        0.1383
      9 C          62.2006   85.2423    7.9010 C.ar    1  UNL1        0.0381
     10 C          62.7950   86.1472    8.9391 C.ar    1  UNL1        0.0173
     11 C          61.9528   87.2123    9.5766 C.ar    1  UNL1        0.0441
     12 C          60.5163   87.3724    9.1758 C.ar    1  UNL1       -0.0055
     13 C          59.6741   88.4375    9.8132 C.3     1  UNL1        0.0324
     14 C          59.9219   86.4675    8.1376 C.ar    1  UNL1        0.0339
     15 O          60.1697   84.4975    6.4620 O.3     1  UNL1       -0.4755
     16 C          62.1172   84.4027    4.7450 C.3     1  UNL1        0.0512
     17 C          61.0652   83.7057    5.5558 C.3     1  UNL1        0.2055
     18 C          64.3304   90.8320   13.7293 C.ar    1  UNL1        0.2593
     19 N          63.6773   91.2489   15.0137 N.ar    1  UNL1       -0.0399
     20 O          64.6255   92.1535   15.7436 O.2     1  UNL1       -0.3341
     21 C          65.8646   92.2956   14.9102 C.ar    1  UNL1        0.2534
     22 N          65.6822   91.4789   13.6654 N.ar    1  UNL1       -0.1764
     23 C          67.0738   93.1113   15.2603 C.3     1  UNL1        0.1281
     24 C          67.5902   91.9836   16.1040 C.3     1  UNL1        0.0272
     25 C          68.7994   92.7992   16.4541 C.3     1  UNL1        0.0043
     26 C          68.2830   93.9269   15.6104 C.3     1  UNL1        0.0272
     27 N          66.5574   94.2389   14.4166 N.am    1  UNL1       -0.2997
     28 C          66.7323   94.2024   12.9273 C.2     1  UNL1        0.2232
     29 C          66.2159   95.3300   12.0837 C.3     1  UNL1        0.0946
     30 O          67.4236   93.0382   12.2817 O.2     1  UNL1       -0.2751
     31 H          66.1037   95.0030   14.8404 H       1  UNL1        0.1498
@<TRIPOS>BOND
     1    16    17    1
     2    17    15    1
     3    15     8    1
     4     8     9   ar
     5     9    10   ar
     6    10    11   ar
     7    11     1    1
     8     1     2    1
     9     2     3    1
    10     3     4    1
    11     4    18    1
    12    18    19   ar
    13    19    20   ar
    14    20    21   ar
    15    21    23    1
    16    23    27    1
    17    27    28   am
    18    28    29    1
    19    28    30    2
    20    23    24    1
    21    24    25    1
    22    25    26    1
    23    21    22   ar
    24     4     5    1
    25     5     6    1
    26     5     7    1
    27    11    12   ar
    28    12    13    1
    29    12    14   ar
    30    14     8   ar
    31     7     1    1
    32    22    18   ar
    33    26    23    1
    34    27    31    1
