@<TRIPOS>MOLECULE
*****
 39 44 0 0 0
SMALL
GASTEIGER

@<TRIPOS>ATOM
      1 C          59.2912   89.6324    6.4648 C.ar    1  UNL1        0.1319
      2 C          57.8021   89.8070    6.5111 C.ar    1  UNL1        0.0343
      3 C          57.1365   90.8109    5.6173 C.ar    1  UNL1        0.0046
      4 C          57.9600   91.6403    4.6771 C.ar    1  UNL1        0.0239
      5 C          59.4491   91.4657    4.6308 C.ar    1  UNL1        0.1358
      6 N          60.1147   90.4617    5.5246 N.ar    1  UNL1       -0.2261
      7 C          60.3263   90.4707    9.1529 C.3     1  UNL1        0.0233
      8 C          60.4743   89.0476    8.7027 C.3     1  UNL1        0.0939
      9 C          61.1399   88.0436    9.5966 C.3     1  UNL1        0.1105
     10 N          61.2879   86.6204    9.1464 N.pl3   1  UNL1       -0.3041
     11 C          60.7704   86.2012    7.8024 C.3     1  UNL1        0.1123
     12 C          60.1049   87.2052    6.9086 C.3     1  UNL1        0.1135
     13 N          59.9568   88.6284    7.3587 N.pl3   1  UNL1       -0.2914
     14 C          61.9535   85.6164   10.0403 C.ar    1  UNL1        0.0480
     15 C          62.8741   84.5861    9.4563 C.ar    1  UNL1        0.0158
     16 C          63.5397   83.5822   10.3501 C.ar    1  UNL1        0.0196
     17 C          63.2847   83.6084   11.8281 C.ar    1  UNL1        0.1058
     18 C          62.3642   84.6386   12.4121 C.ar    1  UNL1        0.0196
     19 C          61.6986   85.6427   11.5182 C.ar    1  UNL1        0.0158
     20 S          63.9503   82.6044   12.7219 S.O2    1  UNL1        0.0105
     21 C          64.6159   81.6005   13.6157 C.3     1  UNL1        0.1816
     22 O          64.9080   82.2587   11.6204 O.2     1  UNL1       -0.1686
     23 O          62.9927   82.9502   13.8234 O.2     1  UNL1       -0.1686
     24 C          60.2726   92.2951    3.6905 C.2     1  UNL1        0.2636
     25 O          59.8540   93.6983    3.3652 O.2     1  UNL1       -0.2685
     26 N          61.5146   91.7213    3.0756 N.am    1  UNL1       -0.3013
     27 H          61.7893   90.8003    3.2891 H       1  UNL1        0.1497
     28 C          62.3381   92.5507    2.1353 C.3     1  UNL1        0.0719
     29 C          61.9155   92.7044    0.7043 C.3     1  UNL1        0.0203
     30 C          63.1615   93.3801    1.1951 C.3     1  UNL1        0.0018
     31 C          63.9849   94.2095    0.2548 C.3     1  UNL1        0.0024
     32 C          64.4074   94.0558    1.6859 C.3     1  UNL1        0.0018
     33 C          63.5840   93.2265    2.6261 C.3     1  UNL1        0.0203
     34 C          63.2797   93.9888   -0.5575 C.3     1  UNL1        0.0285
     35 C          62.3163   93.6873   -1.6670 C.3     1  UNL1        0.0884
     36 O          61.8938   93.8410   -3.0980 O.3     1  UNL1       -0.3867
     37 C          63.5623   94.3631   -1.1762 C.3     1  UNL1        0.0269
     38 C          61.4929   92.8580   -0.7267 C.3     1  UNL1        0.0285
     39 H          62.5311   94.4039   -3.5647 H       1  UNL1        0.2102
@<TRIPOS>BOND
     1     8     7    1
     2     8     9    1
     3     9    10    1
     4    10    14    1
     5    14    15   ar
     6    15    16   ar
     7    16    17   ar
     8    17    20    1
     9    20    21    1
    10    20    22    2
    11    20    23    2
    12    17    18   ar
    13    18    19   ar
    14    10    11    1
    15    11    12    1
    16    12    13    1
    17    13     1    1
    18     1     2   ar
    19     2     3   ar
    20     3     4   ar
    21     4     5   ar
    22     5    24    1
    23    24    25    2
    24    24    26   am
    25    26    28    1
    26    28    29    1
    27    29    30    1
    28    30    31    1
    29    31    32    1
    30    32    33    1
    31    33    34    1
    32    34    35    1
    33    35    36    1
    34    35    37    1
    35    35    38    1
    36     5     6   ar
    37    13     8    1
    38     6     1   ar
    39    19    14   ar
    40    33    28    1
    41    38    29    1
    42    37    31    1
    43    26    27    1
    44    36    39    1
@<TRIPOS>MOLECULE
*****
 39 44 0 0 0
SMALL
GASTEIGER

@<TRIPOS>ATOM
      1 C          64.1478   89.0863   14.6751 C.ar    1  UNL1        0.1319
      2 C          63.6295   89.4400   16.0375 C.ar    1  UNL1        0.0343
      3 C          63.8232   90.8261   16.5771 C.ar    1  UNL1        0.0046
      4 C          64.5352   91.8585   15.7542 C.ar    1  UNL1        0.0239
      5 C          65.0535   91.5048   14.3917 C.ar    1  UNL1        0.1358
      6 N          64.8598   90.1187   13.8522 N.ar    1  UNL1       -0.2261
      7 C          62.8215   88.6839   12.0145 C.3     1  UNL1        0.0233
      8 C          63.2910   87.4989   12.8053 C.3     1  UNL1        0.0939
      9 C          63.0973   86.1128   12.2658 C.3     1  UNL1        0.1105
     10 N          63.5668   84.9278   13.0567 N.pl3   1  UNL1       -0.3041
     11 C          64.2299   85.1290   14.3870 C.3     1  UNL1        0.1123
     12 C          64.4236   86.5151   14.9264 C.3     1  UNL1        0.1135
     13 N          63.9541   87.7001   14.1356 N.pl3   1  UNL1       -0.2914
     14 C          63.3731   83.5416   12.5172 C.ar    1  UNL1        0.0480
     15 C          62.8325   82.4601   13.4049 C.ar    1  UNL1        0.0158
     16 C          62.6388   81.0739   12.8654 C.ar    1  UNL1        0.0196
     17 C          62.9857   80.7693   11.4382 C.ar    1  UNL1        0.1058
     18 C          63.5262   81.8508   10.5505 C.ar    1  UNL1        0.0196
     19 C          63.7199   83.2370   11.0900 C.ar    1  UNL1        0.0158
     20 S          62.7920   79.3831   10.8987 S.O2    1  UNL1        0.0105
     21 C          62.5982   77.9970   10.3593 C.3     1  UNL1        0.1816
     22 O          62.5309   78.8792   12.2872 O.2     1  UNL1       -0.1686
     23 O          63.0530   79.8870    9.5103 O.2     1  UNL1       -0.1686
     24 C          65.7655   92.5372   13.5688 C.2     1  UNL1        0.2636
     25 O          67.1252   93.0179   13.9813 O.2     1  UNL1       -0.2685
     26 N          65.1178   93.0890   12.3335 N.am    1  UNL1       -0.3013
     27 H          64.2254   92.7735   12.0629 H       1  UNL1        0.1497
     28 C          65.8298   94.1215   11.5106 C.3     1  UNL1        0.0719
     29 C          66.5112   93.7243   10.2347 C.3     1  UNL1        0.0203
     30 C          66.5418   95.1539   10.6877 C.3     1  UNL1        0.0018
     31 C          67.2538   96.1863    9.8648 C.3     1  UNL1        0.0024
     32 C          66.5724   96.5835   11.1408 C.3     1  UNL1        0.0018
     33 C          65.8604   95.5511   11.9637 C.3     1  UNL1        0.0203
     34 C          67.5288   95.4142    9.1341 C.3     1  UNL1        0.0285
     35 C          67.9045   94.3595    8.1359 C.3     1  UNL1        0.0884
     36 O          68.5859   93.9622    6.8600 O.3     1  UNL1       -0.3867
     37 C          67.9351   95.7890    8.5889 C.3     1  UNL1        0.0269
     38 C          67.1925   93.3271    8.9588 C.3     1  UNL1        0.0285
     39 H          68.9942   94.7433    6.4547 H       1  UNL1        0.2102
@<TRIPOS>BOND
     1     8     7    1
     2     8     9    1
     3     9    10    1
     4    10    14    1
     5    14    15   ar
     6    15    16   ar
     7    16    17   ar
     8    17    20    1
     9    20    21    1
    10    20    22    2
    11    20    23    2
    12    17    18   ar
    13    18    19   ar
    14    10    11    1
    15    11    12    1
    16    12    13    1
    17    13     1    1
    18     1     2   ar
    19     2     3   ar
    20     3     4   ar
    21     4     5   ar
    22     5    24    1
    23    24    25    2
    24    24    26   am
    25    26    28    1
    26    28    29    1
    27    29    30    1
    28    30    31    1
    29    31    32    1
    30    32    33    1
    31    33    34    1
    32    34    35    1
    33    35    36    1
    34    35    37    1
    35    35    38    1
    36     5     6   ar
    37    13     8    1
    38     6     1   ar
    39    19    14   ar
    40    33    28    1
    41    38    29    1
    42    37    31    1
    43    26    27    1
    44    36    39    1
@<TRIPOS>MOLECULE
*****
 39 44 0 0 0
SMALL
GASTEIGER

@<TRIPOS>ATOM
      1 C          59.3734   90.1215    6.5713 C.ar    1  UNL1        0.1319
      2 C          57.8785   90.1392    6.4493 C.ar    1  UNL1        0.0343
      3 C          57.2247   90.9265    5.3526 C.ar    1  UNL1        0.0046
      4 C          58.0659   91.6960    4.3779 C.ar    1  UNL1        0.0239
      5 C          59.5609   91.6782    4.4998 C.ar    1  UNL1        0.1358
      6 N          60.2146   90.8910    5.5965 N.ar    1  UNL1       -0.2261
      7 C          59.0430   87.1417    6.6809 C.3     1  UNL1        0.0233
      8 C          59.8619   87.8443    7.7229 C.3     1  UNL1        0.0939
      9 C          60.5156   87.0571    8.8196 C.3     1  UNL1        0.1105
     10 N          61.3345   87.7597    9.8616 N.pl3   1  UNL1       -0.3041
     11 C          61.4998   89.2496    9.8068 C.3     1  UNL1        0.1123
     12 C          60.8460   90.0368    8.7100 C.3     1  UNL1        0.1135
     13 N          60.0271   89.3342    7.6681 N.pl3   1  UNL1       -0.2914
     14 C          61.9883   86.9724   10.9584 C.ar    1  UNL1        0.0480
     15 C          61.8105   85.4843   11.0219 C.ar    1  UNL1        0.0158
     16 C          62.4642   84.6970   12.1186 C.ar    1  UNL1        0.0196
     17 C          63.2957   85.3978   13.1519 C.ar    1  UNL1        0.1058
     18 C          63.4734   86.8859   13.0884 C.ar    1  UNL1        0.0196
     19 C          62.8197   87.6732   11.9916 C.ar    1  UNL1        0.0158
     20 S          63.9493   84.6105   14.2486 S.O2    1  UNL1        0.0105
     21 C          64.6030   83.8232   15.3453 C.3     1  UNL1        0.1816
     22 O          63.1489   85.3657   15.2678 O.2     1  UNL1       -0.1686
     23 O          64.7497   83.8553   13.2293 O.2     1  UNL1       -0.1686
     24 C          60.4021   92.4478    3.5250 C.2     1  UNL1        0.2636
     25 O          59.9810   93.8206    3.0913 O.2     1  UNL1       -0.2685
     26 N          61.6643   91.8445    2.9839 N.am    1  UNL1       -0.3013
     27 H          61.9406   90.9435    3.2685 H       1  UNL1        0.1497
     28 C          62.5055   92.6141    2.0090 C.3     1  UNL1        0.0719
     29 C          62.0644   92.7502    0.5818 C.3     1  UNL1        0.0203
     30 C          63.3466   93.3836    1.0342 C.3     1  UNL1        0.0018
     31 C          64.1877   94.1531    0.0594 C.3     1  UNL1        0.0024
     32 C          64.6288   94.0170    1.4866 C.3     1  UNL1        0.0018
     33 C          63.7877   93.2475    2.4614 C.3     1  UNL1        0.0203
     34 C          63.4594   93.9429   -0.7350 C.3     1  UNL1        0.0285
     35 C          62.4645   93.6558   -1.8202 C.3     1  UNL1        0.0884
     36 O          62.0234   93.7919   -3.2474 O.3     1  UNL1       -0.3867
     37 C          63.7467   94.2892   -1.3678 C.3     1  UNL1        0.0269
     38 C          61.6233   92.8863   -0.8454 C.3     1  UNL1        0.0285
     39 H          62.6757   94.3151   -3.7390 H       1  UNL1        0.2102
@<TRIPOS>BOND
     1     8     7    1
     2     8     9    1
     3     9    10    1
     4    10    14    1
     5    14    15   ar
     6    15    16   ar
     7    16    17   ar
     8    17    20    1
     9    20    21    1
    10    20    22    2
    11    20    23    2
    12    17    18   ar
    13    18    19   ar
    14    10    11    1
    15    11    12    1
    16    12    13    1
    17    13     1    1
    18     1     2   ar
    19     2     3   ar
    20     3     4   ar
    21     4     5   ar
    22     5    24    1
    23    24    25    2
    24    24    26   am
    25    26    28    1
    26    28    29    1
    27    29    30    1
    28    30    31    1
    29    31    32    1
    30    32    33    1
    31    33    34    1
    32    34    35    1
    33    35    36    1
    34    35    37    1
    35    35    38    1
    36     5     6   ar
    37    13     8    1
    38     6     1   ar
    39    19    14   ar
    40    33    28    1
    41    38    29    1
    42    37    31    1
    43    26    27    1
    44    36    39    1
@<TRIPOS>MOLECULE
*****
 39 44 0 0 0
SMALL
GASTEIGER

@<TRIPOS>ATOM
      1 C          59.3103   90.2096    6.4765 C.ar    1  UNL1        0.1319
      2 C          57.8184   90.1646    6.3272 C.ar    1  UNL1        0.0343
      3 C          57.1510   90.9370    5.2282 C.ar    1  UNL1        0.0046
      4 C          57.9754   91.7546    4.2786 C.ar    1  UNL1        0.0239
      5 C          59.4673   91.7996    4.4279 C.ar    1  UNL1        0.1358
      6 N          60.1347   91.0272    5.5269 N.ar    1  UNL1       -0.2261
      7 C          59.0779   87.2199    6.5635 C.3     1  UNL1        0.0233
      8 C          59.8615   87.9423    7.6191 C.3     1  UNL1        0.0939
      9 C          60.5289   87.1698    8.7181 C.3     1  UNL1        0.1105
     10 N          61.3125   87.8922    9.7736 N.pl3   1  UNL1       -0.3041
     11 C          61.4287   89.3870    9.7301 C.3     1  UNL1        0.1123
     12 C          60.7613   90.1595    8.6311 C.3     1  UNL1        0.1135
     13 N          59.9777   89.4371    7.5756 N.pl3   1  UNL1       -0.2914
     14 C          61.9800   87.1197   10.8726 C.ar    1  UNL1        0.0480
     15 C          62.8297   87.8334   11.8819 C.ar    1  UNL1        0.0158
     16 C          63.4971   87.0609   12.9809 C.ar    1  UNL1        0.0196
     17 C          63.3148   85.5747   13.0707 C.ar    1  UNL1        0.1058
     18 C          62.4651   84.8610   12.0614 C.ar    1  UNL1        0.0196
     19 C          61.7977   85.6335   10.9623 C.ar    1  UNL1        0.0158
     20 S          63.9822   84.8023   14.1697 S.O2    1  UNL1        0.0105
     21 C          64.6496   84.0298   15.2687 C.3     1  UNL1        0.1816
     22 O          64.6993   83.9695   13.1488 O.2     1  UNL1       -0.1686
     23 O          63.2651   85.6351   15.1905 O.2     1  UNL1       -0.1686
     24 C          60.2918   92.6172    3.4782 C.2     1  UNL1        0.2636
     25 O          59.8769   94.0184    3.1397 O.2     1  UNL1       -0.2685
     26 N          61.5310   92.0336    2.8669 N.am    1  UNL1       -0.3013
     27 H          61.8032   91.1139    3.0890 H       1  UNL1        0.1497
     28 C          62.3554   92.8512    1.9172 C.3     1  UNL1        0.0719
     29 C          63.2792   93.9087    2.4448 C.3     1  UNL1        0.0203
     30 C          63.1798   93.6688    0.9675 C.3     1  UNL1        0.0018
     31 C          64.0043   94.4863    0.0179 C.3     1  UNL1        0.0024
     32 C          63.0805   93.4289   -0.5098 C.3     1  UNL1        0.0018
     33 C          62.2561   92.6113    0.4398 C.3     1  UNL1        0.0203
     34 C          64.4367   95.0347    0.8653 C.3     1  UNL1        0.0285
     35 C          65.0273   95.7837    2.0229 C.3     1  UNL1        0.0884
     36 O          65.9511   96.8412    2.5506 O.3     1  UNL1       -0.3867
     37 C          64.9280   95.5438    0.5456 C.3     1  UNL1        0.0269
     38 C          64.2029   94.9661    2.9725 C.3     1  UNL1        0.0285
     39 H          66.4054   97.2724    1.8100 H       1  UNL1        0.2102
@<TRIPOS>BOND
     1     8     7    1
     2     8     9    1
     3     9    10    1
     4    10    14    1
     5    14    15   ar
     6    15    16   ar
     7    16    17   ar
     8    17    20    1
     9    20    21    1
    10    20    22    2
    11    20    23    2
    12    17    18   ar
    13    18    19   ar
    14    10    11    1
    15    11    12    1
    16    12    13    1
    17    13     1    1
    18     1     2   ar
    19     2     3   ar
    20     3     4   ar
    21     4     5   ar
    22     5    24    1
    23    24    25    2
    24    24    26   am
    25    26    28    1
    26    28    29    1
    27    29    30    1
    28    30    31    1
    29    31    32    1
    30    32    33    1
    31    33    34    1
    32    34    35    1
    33    35    36    1
    34    35    37    1
    35    35    38    1
    36     5     6   ar
    37    13     8    1
    38     6     1   ar
    39    19    14   ar
    40    33    28    1
    41    38    29    1
    42    37    31    1
    43    26    27    1
    44    36    39    1
@<TRIPOS>MOLECULE
*****
 39 44 0 0 0
SMALL
GASTEIGER

@<TRIPOS>ATOM
      1 C          63.8656   88.6428   13.9562 C.ar    1  UNL1        0.1319
      2 C          63.6197   88.9978   15.3927 C.ar    1  UNL1        0.0343
      3 C          63.7766   90.4171   15.8519 C.ar    1  UNL1        0.0046
      4 C          64.1794   91.4814   14.8747 C.ar    1  UNL1        0.0239
      5 C          64.4253   91.1263   13.4382 C.ar    1  UNL1        0.1358
      6 N          64.2684   89.7070   12.9790 N.ar    1  UNL1       -0.2261
      7 C          65.2589   86.4285   15.4244 C.3     1  UNL1        0.0233
      8 C          64.4053   86.1163   14.2311 C.3     1  UNL1        0.0939
      9 C          64.2484   84.6970   13.7719 C.3     1  UNL1        0.1105
     10 N          63.3948   84.3848   12.5786 N.pl3   1  UNL1       -0.3041
     11 C          62.6981   85.4919   11.8446 C.3     1  UNL1        0.1123
     12 C          62.8550   86.9112   12.3038 C.3     1  UNL1        0.1135
     13 N          63.7086   87.2234   13.4970 N.pl3   1  UNL1       -0.2914
     14 C          63.2378   82.9654   12.1194 C.ar    1  UNL1        0.0480
     15 C          62.5944   81.9527   13.0197 C.ar    1  UNL1        0.0158
     16 C          62.4375   80.5334   12.5605 C.ar    1  UNL1        0.0196
     17 C          62.9240   80.1267   11.2011 C.ar    1  UNL1        0.1058
     18 C          63.5674   81.1394   10.3009 C.ar    1  UNL1        0.0196
     19 C          63.7243   82.5588   10.7601 C.ar    1  UNL1        0.0158
     20 S          62.7670   78.7074   10.7420 S.O2    1  UNL1        0.0105
     21 C          62.6101   77.2881   10.2828 C.3     1  UNL1        0.1816
     22 O          62.8901   79.1551    9.3157 O.2     1  UNL1       -0.1686
     23 O          62.6440   78.2596   12.1682 O.2     1  UNL1       -0.1686
     24 C          64.8281   92.1907   12.4609 C.2     1  UNL1        0.2636
     25 O          64.2690   92.1812   11.0690 O.2     1  UNL1       -0.2685
     26 N          65.7898   93.2644   12.8755 N.am    1  UNL1       -0.3013
     27 H          66.1567   93.2707   13.7891 H       1  UNL1        0.1497
     28 C          66.1926   94.3288   11.8983 C.3     1  UNL1        0.0719
     29 C          66.7467   93.9455   10.5581 C.3     1  UNL1        0.0203
     30 C          66.5954   95.3930   10.9210 C.3     1  UNL1        0.0018
     31 C          66.9982   96.4573    9.9437 C.3     1  UNL1        0.0024
     32 C          66.4441   96.8405   11.2839 C.3     1  UNL1        0.0018
     33 C          66.0414   95.7763   12.2612 C.3     1  UNL1        0.0203
     34 C          67.2963   95.6835    9.2239 C.3     1  UNL1        0.0285
     35 C          67.7036   94.6265    8.2406 C.3     1  UNL1        0.0884
     36 O          68.2576   94.2432    6.9004 O.3     1  UNL1       -0.3867
     37 C          67.5523   96.0740    8.6036 C.3     1  UNL1        0.0269
     38 C          67.3008   93.5622    9.2179 C.3     1  UNL1        0.0285
     39 H          68.4656   95.0448    6.3953 H       1  UNL1        0.2102
@<TRIPOS>BOND
     1     8     7    1
     2     8     9    1
     3     9    10    1
     4    10    14    1
     5    14    15   ar
     6    15    16   ar
     7    16    17   ar
     8    17    20    1
     9    20    21    1
    10    20    22    2
    11    20    23    2
    12    17    18   ar
    13    18    19   ar
    14    10    11    1
    15    11    12    1
    16    12    13    1
    17    13     1    1
    18     1     2   ar
    19     2     3   ar
    20     3     4   ar
    21     4     5   ar
    22     5    24    1
    23    24    25    2
    24    24    26   am
    25    26    28    1
    26    28    29    1
    27    29    30    1
    28    30    31    1
    29    31    32    1
    30    32    33    1
    31    33    34    1
    32    34    35    1
    33    35    36    1
    34    35    37    1
    35    35    38    1
    36     5     6   ar
    37    13     8    1
    38     6     1   ar
    39    19    14   ar
    40    33    28    1
    41    38    29    1
    42    37    31    1
    43    26    27    1
    44    36    39    1
@<TRIPOS>MOLECULE
*****
 39 44 0 0 0
SMALL
GASTEIGER

@<TRIPOS>ATOM
      1 C          72.7887   78.3673   13.3724 C.ar    1  UNL1        0.1319
      2 C          72.8778   79.2976   14.5456 C.ar    1  UNL1        0.0343
      3 C          72.8062   78.7533   15.9415 C.ar    1  UNL1        0.0046
      4 C          72.6455   77.2787   16.1642 C.ar    1  UNL1        0.0239
      5 C          72.5564   76.3484   14.9909 C.ar    1  UNL1        0.1358
      6 N          72.6280   76.8926   13.5950 N.ar    1  UNL1       -0.2261
      7 C          73.6327   76.5874   11.1097 C.3     1  UNL1        0.0233
      8 C          73.2823   78.0217   10.8451 C.3     1  UNL1        0.0939
      9 C          73.3539   78.5661    9.4493 C.3     1  UNL1        0.1105
     10 N          73.0034   80.0004    9.1847 N.pl3   1  UNL1       -0.3041
     11 C          72.5814   80.8903   10.3160 C.3     1  UNL1        0.1123
     12 C          72.5098   80.3459   11.7119 C.3     1  UNL1        0.1135
     13 N          72.8603   78.9116   11.9764 N.pl3   1  UNL1       -0.2914
     14 C          73.0750   80.5447    7.7887 C.ar    1  UNL1        0.0480
     15 C          72.6602   81.9597    7.5133 C.ar    1  UNL1        0.0158
     16 C          72.7318   82.5041    6.1175 C.ar    1  UNL1        0.0196
     17 C          73.2182   81.6335    4.9969 C.ar    1  UNL1        0.1058
     18 C          73.6330   80.2185    5.2723 C.ar    1  UNL1        0.0196
     19 C          73.5614   79.6741    6.6683 C.ar    1  UNL1        0.0158
     20 S          73.2898   82.1778    3.6010 S.O2    1  UNL1        0.0105
     21 C          73.3614   82.7222    2.2052 C.3     1  UNL1        0.1816
     22 O          73.6328   80.8115    3.0858 O.2     1  UNL1       -0.1686
     23 O          72.9468   83.5441    4.1163 O.2     1  UNL1       -0.1686
     24 C          72.3957   74.8737   15.2136 C.2     1  UNL1        0.2636
     25 O          72.5110   74.3073   16.5978 O.2     1  UNL1       -0.2685
     26 N          72.1197   73.9655   14.0522 N.am    1  UNL1       -0.3013
     27 H          72.0440   74.3372   13.1438 H       1  UNL1        0.1497
     28 C          71.9590   72.4908   14.2749 C.3     1  UNL1        0.0719
     29 C          70.9190   71.7259   13.5111 C.3     1  UNL1        0.0203
     30 C          71.7982   71.0161   14.4976 C.3     1  UNL1        0.0018
     31 C          71.6375   69.5415   14.7202 C.3     1  UNL1        0.0024
     32 C          72.6774   70.3064   15.4841 C.3     1  UNL1        0.0018
     33 C          72.8382   71.7810   15.2614 C.3     1  UNL1        0.0203
     34 C          70.8264   69.5182   13.9804 C.3     1  UNL1        0.0285
     35 C          69.7184   69.4863   12.9699 C.3     1  UNL1        0.0884
     36 O          68.6785   68.7214   12.2060 O.3     1  UNL1       -0.3867
     37 C          70.5976   68.7766   13.9564 C.3     1  UNL1        0.0269
     38 C          69.8791   70.9609   12.7472 C.3     1  UNL1        0.0285
     39 H          68.7072   67.7876   12.4670 H       1  UNL1        0.2102
@<TRIPOS>BOND
     1     8     7    1
     2     8     9    1
     3     9    10    1
     4    10    14    1
     5    14    15   ar
     6    15    16   ar
     7    16    17   ar
     8    17    20    1
     9    20    21    1
    10    20    22    2
    11    20    23    2
    12    17    18   ar
    13    18    19   ar
    14    10    11    1
    15    11    12    1
    16    12    13    1
    17    13     1    1
    18     1     2   ar
    19     2     3   ar
    20     3     4   ar
    21     4     5   ar
    22     5    24    1
    23    24    25    2
    24    24    26   am
    25    26    28    1
    26    28    29    1
    27    29    30    1
    28    30    31    1
    29    31    32    1
    30    32    33    1
    31    33    34    1
    32    34    35    1
    33    35    36    1
    34    35    37    1
    35    35    38    1
    36     5     6   ar
    37    13     8    1
    38     6     1   ar
    39    19    14   ar
    40    33    28    1
    41    38    29    1
    42    37    31    1
    43    26    27    1
    44    36    39    1
