@<TRIPOS>MOLECULE
*****
 67 75 0 0 0
SMALL
GASTEIGER

@<TRIPOS>ATOM
      1 N          62.5973   94.9952   -3.2157 N.3     1  UNL1       -0.1862
      2 C          61.5814   94.6586   -4.2666 C.3     1  UNL1        0.1775
      3 C          60.2490   94.0959   -3.8689 C.2     1  UNL1        0.2452
      4 O          59.2331   93.7592   -4.9199 O.2     1  UNL1       -0.2732
      5 N          59.9326   93.8699   -2.4202 N.am    1  UNL1       -0.2541
      6 C          60.9485   94.2066   -1.3692 C.3     1  UNL1        0.1908
      7 C          60.6320   93.9806    0.0795 C.3     1  UNL1        0.1359
      8 N          59.2996   93.4179    0.4773 N.am    1  UNL1       -0.2705
      9 C          58.2837   93.0812   -0.5738 C.2     1  UNL1        0.2445
     10 O          56.9513   92.5186   -0.1760 O.2     1  UNL1       -0.2731
     11 C          58.6002   93.3072   -2.0224 C.3     1  UNL1        0.1577
     12 N          62.2808   94.7692   -1.7670 N.am    1  UNL1       -0.1863
     13 C          63.2968   95.1059   -0.7159 C.2     1  UNL1        0.3191
     14 O          62.9803   94.8799    0.7328 O.2     1  UNL1       -0.2512
     15 N          64.6291   95.6686   -1.1137 N.am    1  UNL1       -0.2836
     16 H          64.8368   95.8169   -2.0645 H       1  UNL1        0.1513
     17 C          63.9297   95.5579   -3.6134 C.3     1  UNL1        0.1188
     18 C          65.6711   95.9129   -5.5084 C.2     1  UNL1       -0.0034
     19 C          64.2446   95.7876   -5.0618 C.2     1  UNL1       -0.0071
     20 C          58.9832   93.1919    1.9260 C.3     1  UNL1        0.1217
     21 C          59.9201   92.3929    2.7826 C.ar    1  UNL1        0.0135
     22 C          61.3778   92.3223    2.4358 C.ar    1  UNL1       -0.0012
     23 C          62.3147   91.5233    3.2923 C.ar    1  UNL1       -0.0002
     24 C          61.7940   90.7948    4.4956 C.ar    1  UNL1        0.0016
     25 C          60.3363   90.8653    4.8425 C.ar    1  UNL1        0.0214
     26 C          59.5395   90.2571    5.9583 C.ar    1  UNL1        0.0722
     27 C          58.1102   90.6803    5.7914 C.ar    1  UNL1        0.0805
     28 N          58.0236   91.5499    4.5724 N.ar    1  UNL1       -0.3241
     29 C          56.7796   92.1925    4.0344 C.3     1  UNL1        0.1305
     30 C          59.3994   91.6644    3.9859 C.ar    1  UNL1        0.0577
     31 C          60.0777   89.3798    7.0496 C.2     1  UNL1        0.2510
     32 O          60.0162   87.8874    6.9111 O.2     1  UNL1       -0.2698
     33 N          60.6773   89.9948    8.2793 N.am    1  UNL1       -0.2791
     34 H          60.7177   90.9742    8.3702 H       1  UNL1        0.1552
     35 C          61.2155   89.1175    9.3705 C.ar    1  UNL1        0.0701
     36 C          62.5522   89.4161    9.9822 C.ar    1  UNL1        0.0191
     37 C          63.0904   88.5389   11.0734 C.ar    1  UNL1        0.0356
     38 C          62.2919   87.3631   11.5530 C.ar    1  UNL1        0.1318
     39 N          60.9552   87.0646   10.9413 N.ar    1  UNL1       -0.2279
     40 C          60.4170   87.9418    9.8501 C.ar    1  UNL1        0.1149
     41 N          62.8301   86.4859   12.6442 N.pl3   1  UNL1       -0.2932
     42 C          63.6205   86.9434   13.8342 C.3     1  UNL1        0.0923
     43 C          63.9513   85.7375   14.6625 C.3     1  UNL1        0.0245
     44 C          63.3653   84.5345   13.9846 C.3     1  UNL1        0.0360
     45 C          64.0582   84.0720   15.2319 C.3     1  UNL1        0.0204
     46 C          63.9004   82.5832   15.3249 C.3     1  UNL1        0.0722
     47 N          63.1101   82.1256   14.1350 N.3     1  UNL1       -0.2726
     48 C          62.7793   83.3316   13.3066 C.3     1  UNL1        0.0738
     49 C          62.6724   84.9971   12.7372 C.3     1  UNL1        0.0935
     50 C          62.7191   80.7105   13.8274 C.3     1  UNL1        0.0721
     51 C          61.2838   80.2885   13.9360 C.3     1  UNL1        0.0188
     52 C          57.5843   92.9706   -3.0734 C.3     1  UNL1        0.0556
     53 C          56.4459   93.9091   -3.3441 C.ar    1  UNL1       -0.0198
     54 C          55.9091   94.0548   -4.7371 C.ar    1  UNL1       -0.0011
     55 C          54.7707   94.9933   -5.0079 C.ar    1  UNL1        0.0363
     56 C          54.1692   95.7862   -3.8856 C.ar    1  UNL1        0.1337
     57 O          53.0309   96.7247   -4.1563 O.3     1  UNL1       -0.5055
     58 C          54.7060   95.6405   -2.4925 C.ar    1  UNL1        0.0363
     59 C          55.8444   94.7019   -2.2217 C.ar    1  UNL1       -0.0011
     60 H          52.6955   96.8157   -5.0265 H       1  UNL1        0.2922
     61 C          65.6450   96.0053   -0.0627 C.3     1  UNL1        0.1177
     62 C          65.2045   96.2880    1.3430 C.ar    1  UNL1       -0.0025
     63 C          66.2077   96.2859    2.4581 C.ar    1  UNL1       -0.0026
     64 C          65.7672   96.5687    3.8638 C.ar    1  UNL1       -0.0003
     65 C          64.3235   96.8535    4.1544 C.ar    1  UNL1       -0.0000
     66 C          63.3202   96.8556    3.0393 C.ar    1  UNL1       -0.0003
     67 C          63.7607   96.5728    1.6336 C.ar    1  UNL1       -0.0026
@<TRIPOS>BOND
     1    18    19    2
     2    19    17    1
     3    17     1    1
     4     1     2    1
     5     2     3    1
     6     3     4    2
     7     3     5   am
     8     5     6    1
     9     6     7    1
    10     7     8    1
    11     8    20    1
    12    20    21    1
    13    21    22   ar
    14    22    23   ar
    15    23    24   ar
    16    24    25   ar
    17    25    26   ar
    18    26    31    1
    19    31    32    2
    20    31    33   am
    21    33    35    1
    22    35    36   ar
    23    36    37   ar
    24    37    38   ar
    25    38    41    1
    26    41    42    1
    27    42    43    1
    28    43    44    1
    29    44    45    1
    30    45    46    1
    31    46    47    1
    32    47    50    1
    33    50    51    1
    34    47    48    1
    35    44    49    1
    36    38    39   ar
    37    39    40   ar
    38    26    27   ar
    39    27    28   ar
    40    28    29    1
    41    28    30   ar
    42     8     9   am
    43     9    10    2
    44     9    11    1
    45    11    52    1
    46    52    53    1
    47    53    54   ar
    48    54    55   ar
    49    55    56   ar
    50    56    57    1
    51    56    58   ar
    52    58    59   ar
    53     6    12    1
    54    12    13   am
    55    13    14    2
    56    13    15   am
    57    15    61    1
    58    61    62    1
    59    62    63   ar
    60    63    64   ar
    61    64    65   ar
    62    65    66   ar
    63    66    67   ar
    64    12     1    1
    65    67    62   ar
    66    11     5    1
    67    59    53   ar
    68    30    21   ar
    69    30    25   ar
    70    40    35   ar
    71    49    41    1
    72    48    44    1
    73    33    34    1
    74    57    60    1
    75    15    16    1
@<TRIPOS>MOLECULE
*****
 67 75 0 0 0
SMALL
GASTEIGER

@<TRIPOS>ATOM
      1 N          62.0614   95.0626   -4.0197 N.3     1  UNL1       -0.1862
      2 C          60.9454   94.9492   -5.0154 C.3     1  UNL1        0.1775
      3 C          59.5734   94.5473   -4.5616 C.2     1  UNL1        0.2452
      4 O          58.4573   94.4339   -5.5575 O.2     1  UNL1       -0.2732
      5 N          59.3174   94.2586   -3.1121 N.am    1  UNL1       -0.2541
      6 C          60.4334   94.3720   -2.1164 C.3     1  UNL1        0.1908
      7 C          60.1774   94.0834   -0.6668 C.3     1  UNL1        0.1359
      8 N          58.8054   93.6814   -0.2130 N.am    1  UNL1       -0.2705
      9 C          57.6893   93.5680   -1.2089 C.2     1  UNL1        0.2445
     10 O          56.3173   93.1660   -0.7551 O.2     1  UNL1       -0.2731
     11 C          57.9453   93.8567   -2.6584 C.3     1  UNL1        0.1577
     12 N          61.8054   94.7740   -2.5702 N.am    1  UNL1       -0.1863
     13 C          62.9215   94.8874   -1.5743 C.2     1  UNL1        0.3191
     14 O          62.6655   94.5988   -0.1248 O.2     1  UNL1       -0.2512
     15 N          64.2936   95.2894   -2.0281 N.am    1  UNL1       -0.2836
     16 H          64.4616   95.4788   -2.9795 H       1  UNL1        0.1513
     17 C          63.4335   95.4646   -4.4734 C.3     1  UNL1        0.1188
     18 C          63.9030   94.1444   -6.6612 C.2     1  UNL1       -0.0034
     19 C          64.2779   94.5009   -5.2533 C.2     1  UNL1       -0.0071
     20 C          58.5494   93.3928    1.2365 C.3     1  UNL1        0.1217
     21 C          59.6344   92.8006    2.0863 C.ar    1  UNL1        0.0135
     22 C          61.0618   92.8600    1.6292 C.ar    1  UNL1       -0.0012
     23 C          62.1468   92.2679    2.4789 C.ar    1  UNL1       -0.0002
     24 C          61.8043   91.6163    3.7859 C.ar    1  UNL1        0.0016
     25 C          60.3769   91.5569    4.2430 C.ar    1  UNL1        0.0214
     26 C          59.7404   90.9835    5.4743 C.ar    1  UNL1        0.0722
     27 C          58.2621   91.2212    5.3855 C.ar    1  UNL1        0.0805
     28 N          57.9849   91.9416    4.0994 N.ar    1  UNL1       -0.3241
     29 C          56.6373   92.3779    3.6059 C.3     1  UNL1        0.1305
     30 C          59.2920   92.1490    3.3933 C.ar    1  UNL1        0.0577
     31 C          60.4566   90.2934    6.5973 C.2     1  UNL1        0.2510
     32 O          61.8947   90.6136    6.8787 O.2     1  UNL1       -0.2698
     33 N          59.7346   89.2832    7.4388 N.am    1  UNL1       -0.2791
     34 H          58.7907   89.0731    7.2541 H       1  UNL1        0.1552
     35 C          60.4506   88.5931    8.5618 C.ar    1  UNL1        0.0701
     36 C          60.7050   87.1164    8.4938 C.ar    1  UNL1        0.0191
     37 C          61.4210   86.4262    9.6167 C.ar    1  UNL1        0.0356
     38 C          61.8827   87.2128   10.8076 C.ar    1  UNL1        0.1318
     39 N          61.6284   88.6895   10.8755 N.ar    1  UNL1       -0.2279
     40 C          60.9123   89.3797    9.7526 C.ar    1  UNL1        0.1149
     41 N          62.5988   86.5228   11.9305 N.pl3   1  UNL1       -0.2932
     42 C          63.4036   87.1909   13.0056 C.3     1  UNL1        0.0923
     43 C          63.9380   86.1246   13.9151 C.3     1  UNL1        0.0245
     44 C          63.4635   84.7972   13.4021 C.3     1  UNL1        0.0360
     45 C          64.2911   84.5512   14.6287 C.3     1  UNL1        0.0204
     46 C          64.3281   83.0717   14.8738 C.3     1  UNL1        0.0722
     47 N          63.5233   82.4035   13.7987 N.3     1  UNL1       -0.2726
     48 C          62.9889   83.4700   12.8892 C.3     1  UNL1        0.0738
     49 C          62.6358   85.0433   12.1756 C.3     1  UNL1        0.0935
     50 C          63.2933   80.9280   13.6579 C.3     1  UNL1        0.0721
     51 C          62.6328   80.3862   12.4250 C.3     1  UNL1        0.0188
     52 C          56.8293   93.7433   -3.6541 C.3     1  UNL1        0.0556
     53 C          56.2016   92.4088   -3.9285 C.ar    1  UNL1       -0.0198
     54 C          56.0477   91.4102   -2.8199 C.ar    1  UNL1       -0.0011
     55 C          55.4200   90.0758   -3.0942 C.ar    1  UNL1        0.0363
     56 C          54.9463   89.7399   -4.4772 C.ar    1  UNL1        0.1337
     57 O          54.3186   88.4055   -4.7516 O.3     1  UNL1       -0.5055
     58 C          55.1002   90.7385   -5.5860 C.ar    1  UNL1        0.0363
     59 C          55.7279   92.0730   -5.3116 C.ar    1  UNL1       -0.0011
     60 H          54.2225   87.7817   -4.0591 H       1  UNL1        0.2922
     61 C          65.4096   95.4027   -1.0324 C.3     1  UNL1        0.1177
     62 C          65.1025   95.4661    0.4345 C.ar    1  UNL1       -0.0025
     63 C          65.0515   94.2051    1.2452 C.ar    1  UNL1       -0.0026
     64 C          64.7444   94.2685    2.7121 C.ar    1  UNL1       -0.0003
     65 C          64.4882   95.5928    3.3682 C.ar    1  UNL1       -0.0000
     66 C          64.5392   96.8539    2.5574 C.ar    1  UNL1       -0.0003
     67 C          64.8463   96.7905    1.0906 C.ar    1  UNL1       -0.0026
@<TRIPOS>BOND
     1    18    19    2
     2    19    17    1
     3    17     1    1
     4     1     2    1
     5     2     3    1
     6     3     4    2
     7     3     5   am
     8     5     6    1
     9     6     7    1
    10     7     8    1
    11     8    20    1
    12    20    21    1
    13    21    22   ar
    14    22    23   ar
    15    23    24   ar
    16    24    25   ar
    17    25    26   ar
    18    26    31    1
    19    31    32    2
    20    31    33   am
    21    33    35    1
    22    35    36   ar
    23    36    37   ar
    24    37    38   ar
    25    38    41    1
    26    41    42    1
    27    42    43    1
    28    43    44    1
    29    44    45    1
    30    45    46    1
    31    46    47    1
    32    47    50    1
    33    50    51    1
    34    47    48    1
    35    44    49    1
    36    38    39   ar
    37    39    40   ar
    38    26    27   ar
    39    27    28   ar
    40    28    29    1
    41    28    30   ar
    42     8     9   am
    43     9    10    2
    44     9    11    1
    45    11    52    1
    46    52    53    1
    47    53    54   ar
    48    54    55   ar
    49    55    56   ar
    50    56    57    1
    51    56    58   ar
    52    58    59   ar
    53     6    12    1
    54    12    13   am
    55    13    14    2
    56    13    15   am
    57    15    61    1
    58    61    62    1
    59    62    63   ar
    60    63    64   ar
    61    64    65   ar
    62    65    66   ar
    63    66    67   ar
    64    12     1    1
    65    67    62   ar
    66    11     5    1
    67    59    53   ar
    68    30    21   ar
    69    30    25   ar
    70    40    35   ar
    71    49    41    1
    72    48    44    1
    73    33    34    1
    74    57    60    1
    75    15    16    1
@<TRIPOS>MOLECULE
*****
 67 75 0 0 0
SMALL
GASTEIGER

@<TRIPOS>ATOM
      1 N          63.5857   96.6986   -5.1375 N.3     1  UNL1       -0.1862
      2 C          62.7569   96.7789   -6.3851 C.3     1  UNL1        0.1775
      3 C          61.2672   96.6217   -6.3073 C.2     1  UNL1        0.2452
      4 O          60.4384   96.7020   -7.5550 O.2     1  UNL1       -0.2732
      5 N          60.6063   96.3843   -4.9819 N.am    1  UNL1       -0.2541
      6 C          61.4351   96.3040   -3.7343 C.3     1  UNL1        0.1908
      7 C          60.7742   96.0666   -2.4087 C.3     1  UNL1        0.1359
      8 N          59.2845   95.9095   -2.3309 N.am    1  UNL1       -0.2705
      9 C          58.4557   95.9897   -3.5786 C.2     1  UNL1        0.2445
     10 O          56.9660   95.8326   -3.5008 O.2     1  UNL1       -0.2731
     11 C          59.1166   96.2271   -4.9040 C.3     1  UNL1        0.1577
     12 N          62.9248   96.4612   -3.8121 N.am    1  UNL1       -0.1863
     13 C          63.7537   96.3809   -2.5644 C.2     1  UNL1        0.3191
     14 O          63.0928   96.1435   -1.2389 O.2     1  UNL1       -0.2512
     15 N          65.2434   96.5381   -2.6422 N.am    1  UNL1       -0.2836
     16 H          65.6771   96.6939   -3.5122 H       1  UNL1        0.1513
     17 C          65.0754   96.8557   -5.2153 C.3     1  UNL1        0.1188
     18 C          65.4599   94.6282   -6.4960 C.2     1  UNL1       -0.0034
     19 C          65.8653   96.0409   -6.1961 C.2     1  UNL1       -0.0071
     20 C          58.6236   95.6720   -1.0055 C.3     1  UNL1        0.1217
     21 C          58.7788   94.3487   -0.3163 C.ar    1  UNL1        0.0135
     22 C          58.2966   93.0947   -0.9834 C.ar    1  UNL1       -0.0012
     23 C          58.4517   91.7714   -0.2943 C.ar    1  UNL1       -0.0002
     24 C          59.0890   91.7022    1.0618 C.ar    1  UNL1        0.0016
     25 C          59.5712   92.9562    1.7288 C.ar    1  UNL1        0.0214
     26 C          60.2339   93.1978    3.0526 C.ar    1  UNL1        0.0722
     27 C          60.4883   94.6704    3.1817 C.ar    1  UNL1        0.0805
     28 N          59.9829   95.3389    1.9377 N.ar    1  UNL1       -0.3241
     29 C          60.0351   96.8088    1.6433 C.3     1  UNL1        0.1305
     30 C          59.4161   94.2795    1.0397 C.ar    1  UNL1        0.0577
     31 C          60.5811   92.1506    4.0689 C.2     1  UNL1        0.2510
     32 O          61.9524   91.5428    4.0811 O.2     1  UNL1       -0.2698
     33 N          59.5571   91.7112    5.0731 N.am    1  UNL1       -0.2791
     34 H          58.6571   92.1101    5.0651 H       1  UNL1        0.1552
     35 C          59.9043   90.6641    6.0894 C.ar    1  UNL1        0.0701
     36 C          60.8779   90.9775    7.1866 C.ar    1  UNL1        0.0191
     37 C          61.2252   89.9305    8.2029 C.ar    1  UNL1        0.0356
     38 C          60.5988   88.5699    8.1221 C.ar    1  UNL1        0.1318
     39 N          59.6252   88.2564    7.0249 N.ar    1  UNL1       -0.2279
     40 C          59.2780   89.3035    6.0085 C.ar    1  UNL1        0.1149
     41 N          60.9460   87.5228    9.1384 N.pl3   1  UNL1       -0.2932
     42 C          60.4747   86.0987    9.1335 C.3     1  UNL1        0.0923
     43 C          61.0628   85.4115   10.3300 C.3     1  UNL1        0.0245
     44 C          61.8977   86.4109   11.0746 C.3     1  UNL1        0.0360
     45 C          61.9698   85.1062   11.8110 C.3     1  UNL1        0.0204
     46 C          62.8493   85.2991   13.0108 C.3     1  UNL1        0.0722
     47 N          63.3207   86.7231   13.0158 N.3     1  UNL1       -0.2726
     48 C          62.7325   87.4102   11.8192 C.3     1  UNL1        0.0738
     49 C          61.8255   87.7157   10.3382 C.3     1  UNL1        0.0935
     50 C          64.2219   87.3499   14.0380 C.3     1  UNL1        0.0721
     51 C          64.4833   86.6488   15.3380 C.3     1  UNL1        0.0188
     52 C          58.2878   96.3074   -6.1516 C.3     1  UNL1        0.0556
     53 C          57.3521   95.1891   -6.5037 C.ar    1  UNL1       -0.0198
     54 C          55.9953   95.4952   -7.0652 C.ar    1  UNL1       -0.0011
     55 C          55.0596   94.3769   -7.4173 C.ar    1  UNL1        0.0363
     56 C          55.4808   92.9525   -7.2079 C.ar    1  UNL1        0.1337
     57 O          54.5451   91.8343   -7.5600 O.3     1  UNL1       -0.5055
     58 C          56.8377   92.6465   -6.6464 C.ar    1  UNL1        0.0363
     59 C          57.7733   93.7647   -6.2943 C.ar    1  UNL1       -0.0011
     60 H          53.6975   92.0254   -7.9107 H       1  UNL1        0.2922
     61 C          66.0722   96.4578   -1.3946 C.3     1  UNL1        0.1177
     62 C          65.4928   95.8610   -0.1463 C.ar    1  UNL1       -0.0025
     63 C          65.1434   94.4029   -0.1043 C.ar    1  UNL1       -0.0026
     64 C          64.5640   93.8061    1.1439 C.ar    1  UNL1       -0.0003
     65 C          64.3340   94.6675    2.3502 C.ar    1  UNL1       -0.0000
     66 C          64.6833   96.1257    2.3082 C.ar    1  UNL1       -0.0003
     67 C          65.2627   96.7225    1.0600 C.ar    1  UNL1       -0.0026
@<TRIPOS>BOND
     1    18    19    2
     2    19    17    1
     3    17     1    1
     4     1     2    1
     5     2     3    1
     6     3     4    2
     7     3     5   am
     8     5     6    1
     9     6     7    1
    10     7     8    1
    11     8    20    1
    12    20    21    1
    13    21    22   ar
    14    22    23   ar
    15    23    24   ar
    16    24    25   ar
    17    25    26   ar
    18    26    31    1
    19    31    32    2
    20    31    33   am
    21    33    35    1
    22    35    36   ar
    23    36    37   ar
    24    37    38   ar
    25    38    41    1
    26    41    42    1
    27    42    43    1
    28    43    44    1
    29    44    45    1
    30    45    46    1
    31    46    47    1
    32    47    50    1
    33    50    51    1
    34    47    48    1
    35    44    49    1
    36    38    39   ar
    37    39    40   ar
    38    26    27   ar
    39    27    28   ar
    40    28    29    1
    41    28    30   ar
    42     8     9   am
    43     9    10    2
    44     9    11    1
    45    11    52    1
    46    52    53    1
    47    53    54   ar
    48    54    55   ar
    49    55    56   ar
    50    56    57    1
    51    56    58   ar
    52    58    59   ar
    53     6    12    1
    54    12    13   am
    55    13    14    2
    56    13    15   am
    57    15    61    1
    58    61    62    1
    59    62    63   ar
    60    63    64   ar
    61    64    65   ar
    62    65    66   ar
    63    66    67   ar
    64    12     1    1
    65    67    62   ar
    66    11     5    1
    67    59    53   ar
    68    30    21   ar
    69    30    25   ar
    70    40    35   ar
    71    49    41    1
    72    48    44    1
    73    33    34    1
    74    57    60    1
    75    15    16    1
@<TRIPOS>MOLECULE
*****
 67 75 0 0 0
SMALL
GASTEIGER

@<TRIPOS>ATOM
      1 N          65.7696   89.9175   13.9841 N.3     1  UNL1       -0.1862
      2 C          66.2050   88.7424   14.8085 C.3     1  UNL1        0.1775
      3 C          65.4038   87.4745   14.7890 C.2     1  UNL1        0.2452
      4 O          65.8393   86.2994   15.6135 O.2     1  UNL1       -0.2732
      5 N          64.1672   87.3815   13.9452 N.am    1  UNL1       -0.2541
      6 C          63.7318   88.5565   13.1208 C.3     1  UNL1        0.1908
      7 C          62.4952   88.4636   12.2768 C.3     1  UNL1        0.1359
      8 N          61.6940   87.1956   12.2573 N.am    1  UNL1       -0.2705
      9 C          62.1295   86.0206   13.0818 C.2     1  UNL1        0.2445
     10 O          61.3283   84.7526   13.0623 O.2     1  UNL1       -0.2731
     11 C          63.3661   86.1135   13.9257 C.3     1  UNL1        0.1577
     12 N          64.5330   89.8245   13.1402 N.am    1  UNL1       -0.1863
     13 C          64.0975   90.9996   12.3158 C.2     1  UNL1        0.3191
     14 O          62.8609   90.9066   11.4719 O.2     1  UNL1       -0.2512
     15 N          64.8986   92.2675   12.3353 N.am    1  UNL1       -0.2836
     16 H          65.7103   92.3285   12.8891 H       1  UNL1        0.1513
     17 C          66.5707   91.1854   14.0036 C.3     1  UNL1        0.1188
     18 C          67.9964   92.9003   15.3365 C.2     1  UNL1       -0.0034
     19 C          67.3999   91.5303   15.2050 C.2     1  UNL1       -0.0071
     20 C          60.4574   87.1027   11.4135 C.3     1  UNL1        0.1217
     21 C          60.5632   87.1654    9.9185 C.ar    1  UNL1        0.0135
     22 C          61.0063   85.9579    9.1467 C.ar    1  UNL1       -0.0012
     23 C          61.1121   86.0205    7.6517 C.ar    1  UNL1       -0.0002
     24 C          60.7746   87.2906    6.9286 C.ar    1  UNL1        0.0016
     25 C          60.3315   88.4981    7.7004 C.ar    1  UNL1        0.0214
     26 C          59.9355   89.8778    7.2651 C.ar    1  UNL1        0.0722
     27 C          59.5851   90.6679    8.4911 C.ar    1  UNL1        0.0805
     28 N          59.7644   89.7765    9.6839 N.ar    1  UNL1       -0.3241
     29 C          59.5246   90.1589   11.1144 C.3     1  UNL1        0.1305
     30 C          60.2257   88.4354    9.1953 C.ar    1  UNL1        0.0577
     31 C          59.8968   90.3794    5.8519 C.2     1  UNL1        0.2510
     32 O          58.7267   90.0531    4.9720 O.2     1  UNL1       -0.2698
     33 N          61.0282   91.2074    5.3187 N.am    1  UNL1       -0.2791
     34 H          61.7962   91.4216    5.8963 H       1  UNL1        0.1552
     35 C          60.9896   91.7090    3.9056 C.ar    1  UNL1        0.0701
     36 C          62.1750   91.5129    3.0076 C.ar    1  UNL1        0.0191
     37 C          62.1364   92.0145    1.5945 C.ar    1  UNL1        0.0356
     38 C          60.9125   92.7122    1.0794 C.ar    1  UNL1        0.1318
     39 N          59.7272   92.9083    1.9775 N.ar    1  UNL1       -0.2279
     40 C          59.7657   92.4067    3.3906 C.ar    1  UNL1        0.1149
     41 N          60.8739   93.2138   -0.3337 N.pl3   1  UNL1       -0.2932
     42 C          59.7041   93.8710   -1.0043 C.3     1  UNL1        0.0923
     43 C          60.1054   94.2097   -2.4093 C.3     1  UNL1        0.0245
     44 C          61.5233   93.7618   -2.6071 C.3     1  UNL1        0.0360
     45 C          61.0484   94.3773   -3.8899 C.3     1  UNL1        0.0204
     46 C          62.1727   94.3099   -4.8806 C.3     1  UNL1        0.0722
     47 N          63.3425   93.6527   -4.2101 N.3     1  UNL1       -0.2726
     48 C          62.9411   93.3140   -2.8050 C.3     1  UNL1        0.0738
     49 C          61.9982   93.1464   -1.3244 C.3     1  UNL1        0.0935
     50 C          64.6789   93.3818   -4.8349 C.3     1  UNL1        0.0721
     51 C          64.8714   92.1706   -5.6985 C.3     1  UNL1        0.0188
     52 C          63.8015   84.9385   14.7501 C.3     1  UNL1        0.0556
     53 C          63.4621   83.5457   14.3087 C.ar    1  UNL1       -0.0198
     54 C          64.2961   82.8659   13.2636 C.ar    1  UNL1       -0.0011
     55 C          63.9567   81.4730   12.8223 C.ar    1  UNL1        0.0363
     56 C          62.7832   80.7600   13.4261 C.ar    1  UNL1        0.1337
     57 O          62.4438   79.3671   12.9847 O.3     1  UNL1       -0.5055
     58 C          61.9492   81.4397   14.4713 C.ar    1  UNL1        0.0363
     59 C          62.2886   82.8326   14.9126 C.ar    1  UNL1       -0.0011
     60 H          62.9648   78.9425   12.3319 H       1  UNL1        0.2922
     61 C          64.4632   93.4426   11.5109 C.3     1  UNL1        0.1177
     62 C          65.4526   94.1517   10.6344 C.ar    1  UNL1       -0.0025
     63 C          65.3237   95.6275   10.3994 C.ar    1  UNL1       -0.0026
     64 C          66.3131   96.3367    9.5229 C.ar    1  UNL1       -0.0003
     65 C          67.4314   95.5700    8.8815 C.ar    1  UNL1       -0.0000
     66 C          67.5604   94.0941    9.1165 C.ar    1  UNL1       -0.0003
     67 C          66.5710   93.3849    9.9930 C.ar    1  UNL1       -0.0026
@<TRIPOS>BOND
     1    18    19    2
     2    19    17    1
     3    17     1    1
     4     1     2    1
     5     2     3    1
     6     3     4    2
     7     3     5   am
     8     5     6    1
     9     6     7    1
    10     7     8    1
    11     8    20    1
    12    20    21    1
    13    21    22   ar
    14    22    23   ar
    15    23    24   ar
    16    24    25   ar
    17    25    26   ar
    18    26    31    1
    19    31    32    2
    20    31    33   am
    21    33    35    1
    22    35    36   ar
    23    36    37   ar
    24    37    38   ar
    25    38    41    1
    26    41    42    1
    27    42    43    1
    28    43    44    1
    29    44    45    1
    30    45    46    1
    31    46    47    1
    32    47    50    1
    33    50    51    1
    34    47    48    1
    35    44    49    1
    36    38    39   ar
    37    39    40   ar
    38    26    27   ar
    39    27    28   ar
    40    28    29    1
    41    28    30   ar
    42     8     9   am
    43     9    10    2
    44     9    11    1
    45    11    52    1
    46    52    53    1
    47    53    54   ar
    48    54    55   ar
    49    55    56   ar
    50    56    57    1
    51    56    58   ar
    52    58    59   ar
    53     6    12    1
    54    12    13   am
    55    13    14    2
    56    13    15   am
    57    15    61    1
    58    61    62    1
    59    62    63   ar
    60    63    64   ar
    61    64    65   ar
    62    65    66   ar
    63    66    67   ar
    64    12     1    1
    65    67    62   ar
    66    11     5    1
    67    59    53   ar
    68    30    21   ar
    69    30    25   ar
    70    40    35   ar
    71    49    41    1
    72    48    44    1
    73    33    34    1
    74    57    60    1
    75    15    16    1
