@<TRIPOS>MOLECULE
*****
 49 55 0 0 0
SMALL
GASTEIGER

@<TRIPOS>ATOM
      1 C          59.8724   89.7216    7.1658 C.ar    1  UNL1        0.1320
      2 C          59.7897   88.2245    7.1233 C.ar    1  UNL1        0.0374
      3 C          59.8948   87.4312    8.3921 C.ar    1  UNL1        0.0414
      4 C          60.0825   88.1351    9.7033 C.ar    1  UNL1        0.1579
      5 C          60.1652   89.6322    9.7458 C.ar    1  UNL1        0.1370
      6 N          60.0601   90.4255    8.4770 N.ar    1  UNL1       -0.2260
      7 N          59.5570   92.1013    3.3596 N.pl3   1  UNL1       -0.3041
      8 C          60.8931   91.6009    3.8227 C.3     1  UNL1        0.1123
      9 C          60.9982   90.8077    5.0915 C.3     1  UNL1        0.1136
     10 N          59.7673   90.5148    5.8971 N.pl3   1  UNL1       -0.2897
     11 C          58.4312   91.0152    5.4339 C.3     1  UNL1        0.1136
     12 C          58.3261   91.8084    4.1651 C.3     1  UNL1        0.1123
     13 C          59.2416   94.4809   -0.4467 C.ar    1  UNL1        0.0699
     14 C          58.4873   93.1924   -0.3031 C.ar    1  UNL1        0.0190
     15 C          58.5924   92.3992    0.9656 C.ar    1  UNL1        0.0160
     16 C          59.4519   92.8945    2.0908 C.ar    1  UNL1        0.0480
     17 C          60.2062   94.1831    1.9472 C.ar    1  UNL1        0.0160
     18 C          60.1010   94.9763    0.6784 C.ar    1  UNL1        0.0190
     19 N          59.5931   96.1601   -3.9284 N.ar    1  UNL1       -0.2024
     20 N          58.3560   96.8296   -3.4073 N.ar    1  UNL1       -0.1442
     21 C          58.0738   96.2821   -2.0397 C.ar    1  UNL1        0.2073
     22 N          59.1364   95.2742   -1.7155 N.ar    1  UNL1       -0.2398
     23 C          60.0754   95.1988   -2.8828 C.ar    1  UNL1        0.3522
     24 O          61.2843   94.3169   -2.9864 O.2     1  UNL1       -0.2444
     25 C          60.2351   96.4083   -5.2612 C.3     1  UNL1        0.1099
     26 C          59.4461   96.2129   -6.5218 C.3     1  UNL1        0.0265
     27 C          62.6483   96.0842   -6.1674 C.3     1  UNL1        0.0021
     28 C          61.6662   96.8519   -5.3333 C.3     1  UNL1        0.0245
     29 O          60.1876   87.3419   10.9721 O.3     1  UNL1       -0.4712
     30 C          61.5360   86.9957   11.5306 C.3     1  UNL1        0.2374
     31 C          62.3972   88.0676   12.1302 C.3     1  UNL1        0.1909
     32 C          62.4686   89.4964   11.6790 C.3     1  UNL1        0.1783
     33 O          63.4537   90.2108   12.5561 O.3     1  UNL1       -0.3266
     34 C          63.9910   89.2235   13.5494 C.3     1  UNL1        0.2315
     35 O          63.3381   87.8990   13.2861 O.3     1  UNL1       -0.3254
     36 C          64.7912   90.3927   14.0418 C.ar    1  UNL1        0.0410
     37 C          65.8276   91.0185   13.1562 C.ar    1  UNL1        0.0022
     38 C          66.6279   92.1878   13.6486 C.ar    1  UNL1        0.0113
     39 C          66.3918   92.7312   15.0265 C.ar    1  UNL1        0.0585
     40 CL         67.1920   93.9005   15.5189 Cl      1  UNL1       -0.0822
     41 C          65.3554   92.1055   15.9122 C.ar    1  UNL1        0.0226
     42 C          64.5551   90.9362   15.4198 C.ar    1  UNL1        0.0591
     43 CL         63.5187   90.3105   16.3054 Cl      1  UNL1       -0.0824
     44 C          64.6957   88.4807   14.6456 C.3     1  UNL1        0.1897
     45 N          64.2112   87.1242   15.0641 N.ar    1  UNL1       -0.2246
     46 C          64.4909   85.8312   14.3572 C.ar    1  UNL1        0.1974
     47 N          63.8145   84.7304   15.1192 N.ar    1  UNL1       -0.2007
     48 C          63.1167   85.3431   16.2972 C.ar    1  UNL1        0.2210
     49 N          63.3618   86.8226   16.2631 N.ar    1  UNL1       -0.1450
@<TRIPOS>BOND
     1    27    28    1
     2    28    25    1
     3    25    26    1
     4    25    19    1
     5    19    20   ar
     6    20    21   ar
     7    21    22   ar
     8    22    13    1
     9    13    14   ar
    10    14    15   ar
    11    15    16   ar
    12    16     7    1
    13     7     8    1
    14     8     9    1
    15     9    10    1
    16    10     1    1
    17     1     2   ar
    18     2     3   ar
    19     3     4   ar
    20     4    29    1
    21    29    30    1
    22    31    30    1
    23    31    32    1
    24    32    33    1
    25    33    34    1
    26    34    44    1
    27    44    45    1
    28    45    46   ar
    29    46    47   ar
    30    47    48   ar
    31    48    49   ar
    32    34    36    1
    33    36    37   ar
    34    37    38   ar
    35    38    39   ar
    36    39    40    1
    37    39    41   ar
    38    41    42   ar
    39    42    43    1
    40    34    35    1
    41     4     5   ar
    42     5     6   ar
    43    10    11    1
    44    11    12    1
    45    16    17   ar
    46    17    18   ar
    47    22    23   ar
    48    23    24    2
    49    23    19   ar
    50    18    13   ar
    51    12     7    1
    52     6     1   ar
    53    35    31    1
    54    49    45   ar
    55    42    36   ar
@<TRIPOS>MOLECULE
*****
 49 55 0 0 0
SMALL
GASTEIGER

@<TRIPOS>ATOM
      1 C          60.0751   90.1126    6.5547 C.ar    1  UNL1        0.1320
      2 C          59.3666   88.7906    6.5536 C.ar    1  UNL1        0.0374
      3 C          59.1853   88.0357    7.8371 C.ar    1  UNL1        0.0414
      4 C          59.7126   88.6029    9.1217 C.ar    1  UNL1        0.1579
      5 C          60.4212   89.9251    9.1228 C.ar    1  UNL1        0.1370
      6 N          60.6024   90.6799    7.8393 N.ar    1  UNL1       -0.2260
      7 N          60.6186   92.3772    2.7042 N.pl3   1  UNL1       -0.3041
      8 C          61.7655   91.6085    3.2905 C.3     1  UNL1        0.1123
      9 C          61.5843   90.8537    4.5741 C.3     1  UNL1        0.1136
     10 N          60.2562   90.8675    5.2712 N.pl3   1  UNL1       -0.2897
     11 C          59.1093   91.6361    4.6848 C.3     1  UNL1        0.1136
     12 C          59.2905   92.3910    3.4014 C.3     1  UNL1        0.1123
     13 C          61.1621   94.6418   -1.1463 C.ar    1  UNL1        0.0699
     14 C          61.7850   95.1530    0.1188 C.ar    1  UNL1        0.0190
     15 C          61.6039   94.3982    1.4023 C.ar    1  UNL1        0.0160
     16 C          60.7997   93.1320    1.4207 C.ar    1  UNL1        0.0480
     17 C          60.1768   92.6208    0.1556 C.ar    1  UNL1        0.0160
     18 C          60.3580   93.3756   -1.1279 C.ar    1  UNL1        0.0190
     19 N          62.3071   96.2629   -4.4819 N.ar    1  UNL1       -0.2024
     20 N          60.9368   96.8536   -4.3279 N.ar    1  UNL1       -0.1442
     21 C          60.3412   96.3182   -3.0597 C.ar    1  UNL1        0.2073
     22 N          61.3432   95.3966   -2.4298 N.ar    1  UNL1       -0.2398
     23 C          62.5582   95.3625   -3.3088 C.ar    1  UNL1        0.3522
     24 O          63.8054   94.5676   -3.0587 O.2     1  UNL1       -0.2444
     25 C          63.2590   96.5265   -5.6108 C.3     1  UNL1        0.1099
     26 C          62.7758   96.4636   -7.0294 C.3     1  UNL1        0.0265
     27 C          65.7866   95.9854   -5.8719 C.3     1  UNL1        0.0021
     28 C          64.6941   96.8529   -5.3211 C.3     1  UNL1        0.0245
     29 O          59.5315   87.8481   10.4052 O.3     1  UNL1       -0.4712
     30 C          60.7300   87.4172   11.1974 C.3     1  UNL1        0.2374
     31 C          61.6685   88.4451   11.7567 C.3     1  UNL1        0.1909
     32 C          61.5355   89.9321   11.6118 C.3     1  UNL1        0.1783
     33 O          62.6895   90.5725   12.3246 O.3     1  UNL1       -0.3266
     34 C          63.5358   89.4812   12.9101 C.3     1  UNL1        0.2315
     35 O          62.9048   88.1664   12.5592 O.3     1  UNL1       -0.3254
     36 C          64.3806   90.6175   13.4051 C.ar    1  UNL1        0.0410
     37 C          64.7225   90.7186   14.8621 C.ar    1  UNL1        0.0022
     38 C          65.5674   91.8550   15.3572 C.ar    1  UNL1        0.0113
     39 C          66.0703   92.8901   14.3952 C.ar    1  UNL1        0.0585
     40 CL         66.9151   94.0265   14.8902 Cl      1  UNL1       -0.0822
     41 C          65.7284   92.7891   12.9382 C.ar    1  UNL1        0.0226
     42 C          64.8836   91.6527   12.4431 C.ar    1  UNL1        0.0591
     43 CL         64.5417   91.5516   10.9861 Cl      1  UNL1       -0.0824
     44 C          64.5587   88.6275   13.5992 C.3     1  UNL1        0.1897
     45 N          64.1361   87.6721   14.6756 N.ar    1  UNL1       -0.2246
     46 C          64.2901   86.1805   14.6409 C.ar    1  UNL1        0.1974
     47 N          63.7345   85.6272   15.9196 N.ar    1  UNL1       -0.2007
     48 C          63.2371   86.7769   16.7447 C.ar    1  UNL1        0.2210
     49 N          63.4854   88.0408   15.9759 N.ar    1  UNL1       -0.1450
@<TRIPOS>BOND
     1    27    28    1
     2    28    25    1
     3    25    26    1
     4    25    19    1
     5    19    20   ar
     6    20    21   ar
     7    21    22   ar
     8    22    13    1
     9    13    14   ar
    10    14    15   ar
    11    15    16   ar
    12    16     7    1
    13     7     8    1
    14     8     9    1
    15     9    10    1
    16    10     1    1
    17     1     2   ar
    18     2     3   ar
    19     3     4   ar
    20     4    29    1
    21    29    30    1
    22    31    30    1
    23    31    32    1
    24    32    33    1
    25    33    34    1
    26    34    44    1
    27    44    45    1
    28    45    46   ar
    29    46    47   ar
    30    47    48   ar
    31    48    49   ar
    32    34    36    1
    33    36    37   ar
    34    37    38   ar
    35    38    39   ar
    36    39    40    1
    37    39    41   ar
    38    41    42   ar
    39    42    43    1
    40    34    35    1
    41     4     5   ar
    42     5     6   ar
    43    10    11    1
    44    11    12    1
    45    16    17   ar
    46    17    18   ar
    47    22    23   ar
    48    23    24    2
    49    23    19   ar
    50    18    13   ar
    51    12     7    1
    52     6     1   ar
    53    35    31    1
    54    49    45   ar
    55    42    36   ar
@<TRIPOS>MOLECULE
*****
 49 55 0 0 0
SMALL
GASTEIGER

@<TRIPOS>ATOM
      1 C          59.4417   93.2197    2.1694 C.ar    1  UNL1        0.1320
      2 C          58.7217   92.6865    0.9664 C.ar    1  UNL1        0.0374
      3 C          58.4710   93.5777   -0.2138 C.ar    1  UNL1        0.0414
      4 C          58.9404   95.0022   -0.1910 C.ar    1  UNL1        0.1579
      5 C          59.6605   95.5354    1.0120 C.ar    1  UNL1        0.1370
      6 N          59.9111   94.6442    2.1922 N.ar    1  UNL1       -0.2260
      7 N          60.1937   90.5458    5.7098 N.pl3   1  UNL1       -0.3041
      8 C          58.8183   91.0892    5.4591 C.3     1  UNL1        0.1123
      9 C          58.5676   91.9805    4.2789 C.3     1  UNL1        0.1136
     10 N          59.6924   92.3284    3.3495 N.pl3   1  UNL1       -0.2897
     11 C          61.0679   91.7850    3.6003 C.3     1  UNL1        0.1136
     12 C          61.3185   90.8937    4.7804 C.3     1  UNL1        0.1123
     13 C          60.9457   87.8719    9.2502 C.ar    1  UNL1        0.0699
     14 C          60.2562   87.3293    8.0337 C.ar    1  UNL1        0.0190
     15 C          60.0055   88.2206    6.8536 C.ar    1  UNL1        0.0160
     16 C          60.4444   89.6545    6.8900 C.ar    1  UNL1        0.0480
     17 C          61.1340   90.1971    8.1066 C.ar    1  UNL1        0.0160
     18 C          61.3847   89.3058    9.2867 C.ar    1  UNL1        0.0190
     19 N          62.0391   85.1851   11.8293 N.ar    1  UNL1       -0.2024
     20 N          61.1253   86.0330   12.6638 N.ar    1  UNL1       -0.1442
     21 C          60.6046   87.1427   11.7992 C.ar    1  UNL1        0.2073
     22 N          61.1965   86.9806   10.4304 N.ar    1  UNL1       -0.2398
     23 C          62.0830   85.7708   10.4491 C.ar    1  UNL1        0.3522
     24 O          62.8745   85.2398    9.2908 O.2     1  UNL1       -0.2444
     25 C          62.7790   83.9657   12.2936 C.3     1  UNL1        0.1099
     26 C          62.6963   82.6926   11.5048 C.3     1  UNL1        0.0265
     27 C          63.3173   83.0691   14.6719 C.3     1  UNL1        0.0021
     28 C          63.6015   84.0194   13.5468 C.3     1  UNL1        0.0245
     29 O          58.6898   95.8935   -1.3711 O.3     1  UNL1       -0.4712
     30 C          59.7482   96.8558   -1.8224 C.3     1  UNL1        0.2374
     31 C          60.8583   96.3854   -2.7148 C.3     1  UNL1        0.1909
     32 C          60.7293   96.0175   -4.1633 C.3     1  UNL1        0.1783
     33 O          62.0835   95.6051   -4.6592 O.3     1  UNL1       -0.3266
     34 C          63.0495   95.7180   -3.5172 C.3     1  UNL1        0.2315
     35 O          62.2923   96.2003   -2.3155 O.3     1  UNL1       -0.3254
     36 C          64.0525   95.2384   -4.5241 C.ar    1  UNL1        0.0410
     37 C          64.9015   96.2273   -5.2667 C.ar    1  UNL1        0.0022
     38 C          65.9045   95.7477   -6.2737 C.ar    1  UNL1        0.0113
     39 C          66.0585   94.2793   -6.5381 C.ar    1  UNL1        0.0585
     40 CL         67.0615   93.7997   -7.5450 Cl      1  UNL1       -0.0822
     41 C          65.2096   93.2904   -5.7956 C.ar    1  UNL1        0.0226
     42 C          64.2065   93.7699   -4.7886 C.ar    1  UNL1        0.0591
     43 CL         63.3576   92.7811   -4.0460 Cl      1  UNL1       -0.0824
     44 C          64.2252   95.7307   -2.5857 C.3     1  UNL1        0.1897
     45 N          64.1441   95.0224   -1.2659 N.ar    1  UNL1       -0.2246
     46 C          65.0001   95.2952   -0.0648 C.ar    1  UNL1        0.1974
     47 N          64.5778   94.3584    1.0278 N.ar    1  UNL1       -0.2007
     48 C          63.4607   93.5065    0.5020 C.ar    1  UNL1        0.2210
     49 N          63.1927   93.9169   -0.9157 N.ar    1  UNL1       -0.1450
@<TRIPOS>BOND
     1    27    28    1
     2    28    25    1
     3    25    26    1
     4    25    19    1
     5    19    20   ar
     6    20    21   ar
     7    21    22   ar
     8    22    13    1
     9    13    14   ar
    10    14    15   ar
    11    15    16   ar
    12    16     7    1
    13     7     8    1
    14     8     9    1
    15     9    10    1
    16    10     1    1
    17     1     2   ar
    18     2     3   ar
    19     3     4   ar
    20     4    29    1
    21    29    30    1
    22    31    30    1
    23    31    32    1
    24    32    33    1
    25    33    34    1
    26    34    44    1
    27    44    45    1
    28    45    46   ar
    29    46    47   ar
    30    47    48   ar
    31    48    49   ar
    32    34    36    1
    33    36    37   ar
    34    37    38   ar
    35    38    39   ar
    36    39    40    1
    37    39    41   ar
    38    41    42   ar
    39    42    43    1
    40    34    35    1
    41     4     5   ar
    42     5     6   ar
    43    10    11    1
    44    11    12    1
    45    16    17   ar
    46    17    18   ar
    47    22    23   ar
    48    23    24    2
    49    23    19   ar
    50    18    13   ar
    51    12     7    1
    52     6     1   ar
    53    35    31    1
    54    49    45   ar
    55    42    36   ar
@<TRIPOS>MOLECULE
*****
 49 55 0 0 0
SMALL
GASTEIGER

@<TRIPOS>ATOM
      1 C          60.5187   90.4842    6.6661 C.ar    1  UNL1        0.1320
      2 C          59.6011   89.3614    7.0499 C.ar    1  UNL1        0.0374
      3 C          59.6998   88.7449    8.4138 C.ar    1  UNL1        0.0414
      4 C          60.7162   89.2512    9.3939 C.ar    1  UNL1        0.1579
      5 C          61.6338   90.3741    9.0101 C.ar    1  UNL1        0.1370
      6 N          61.5350   90.9905    7.6462 N.ar    1  UNL1       -0.2260
      7 N          60.2223   92.3336    2.5744 N.pl3   1  UNL1       -0.3041
      8 C          61.5314   91.7808    3.0545 C.3     1  UNL1        0.1123
      9 C          61.6302   91.1643    4.4185 C.3     1  UNL1        0.1136
     10 N          60.4199   91.1006    5.3022 N.pl3   1  UNL1       -0.2897
     11 C          59.1107   91.6535    4.8220 C.3     1  UNL1        0.1136
     12 C          59.0120   92.2699    3.4582 C.3     1  UNL1        0.1123
     13 C          59.9259   94.1829   -1.5173 C.ar    1  UNL1        0.0699
     14 C          60.6474   92.8808   -1.3332 C.ar    1  UNL1        0.0190
     15 C          60.7462   92.2644    0.0306 C.ar    1  UNL1        0.0160
     16 C          60.1235   92.9501    1.2105 C.ar    1  UNL1        0.0480
     17 C          59.4019   94.2521    1.0265 C.ar    1  UNL1        0.0160
     18 C          59.3031   94.8686   -0.3374 C.ar    1  UNL1        0.0190
     19 N          59.0869   95.3095   -5.1356 N.ar    1  UNL1       -0.2024
     20 N          60.2632   96.1867   -4.8244 N.ar    1  UNL1       -0.1442
     21 C          60.7207   95.8714   -3.4311 C.ar    1  UNL1        0.2073
     22 N          59.8271   94.7994   -2.8812 N.ar    1  UNL1       -0.2398
     23 C          58.8173   94.4521   -3.9347 C.ar    1  UNL1        0.3522
     24 O          57.7291   93.4274   -3.8093 O.2     1  UNL1       -0.2444
     25 C          58.3155   95.2927   -6.4220 C.3     1  UNL1        0.1099
     26 C          57.2943   96.3561   -6.6981 C.3     1  UNL1        0.0265
     27 C          57.8849   92.8831   -7.2928 C.3     1  UNL1        0.0021
     28 C          58.5654   94.2124   -7.4323 C.3     1  UNL1        0.0245
     29 O          60.8150   88.6347   10.7578 O.3     1  UNL1       -0.4712
     30 C          62.1082   88.0275   11.2144 C.3     1  UNL1        0.2374
     31 C          62.1785   86.5630   11.5315 C.3     1  UNL1        0.1909
     32 C          61.5086   85.4617   10.7645 C.3     1  UNL1        0.1783
     33 O          61.8470   84.1608   11.4302 O.3     1  UNL1       -0.3266
     34 C          62.7262   84.4582   12.6087 C.3     1  UNL1        0.2315
     35 O          62.9310   85.9428   12.6713 O.3     1  UNL1       -0.3254
     36 C          62.7041   82.9707   12.8008 C.ar    1  UNL1        0.0410
     37 C          61.9280   82.3726   13.9365 C.ar    1  UNL1        0.0022
     38 C          61.9060   80.8851   14.1287 C.ar    1  UNL1        0.0113
     39 C          62.6600   79.9957   13.1852 C.ar    1  UNL1        0.0585
     40 CL         62.6379   78.5083   13.3773 Cl      1  UNL1       -0.0822
     41 C          63.4361   80.5937   12.0494 C.ar    1  UNL1        0.0226
     42 C          63.4582   82.0813   11.8572 C.ar    1  UNL1        0.0591
     43 CL         64.2343   82.6794   10.7214 Cl      1  UNL1       -0.0824
     44 C          63.6007   84.4445   13.8273 C.3     1  UNL1        0.1897
     45 N          63.1847   85.1954   15.0574 N.ar    1  UNL1       -0.2246
     46 C          62.0242   84.8583   15.9459 C.ar    1  UNL1        0.1974
     47 N          61.9785   85.8697   17.0526 N.ar    1  UNL1       -0.2007
     48 C          63.1108   86.8321   16.8480 C.ar    1  UNL1        0.2210
     49 N          63.8563   86.4153   15.6149 N.ar    1  UNL1       -0.1450
@<TRIPOS>BOND
     1    27    28    1
     2    28    25    1
     3    25    26    1
     4    25    19    1
     5    19    20   ar
     6    20    21   ar
     7    21    22   ar
     8    22    13    1
     9    13    14   ar
    10    14    15   ar
    11    15    16   ar
    12    16     7    1
    13     7     8    1
    14     8     9    1
    15     9    10    1
    16    10     1    1
    17     1     2   ar
    18     2     3   ar
    19     3     4   ar
    20     4    29    1
    21    29    30    1
    22    31    30    1
    23    31    32    1
    24    32    33    1
    25    33    34    1
    26    34    44    1
    27    44    45    1
    28    45    46   ar
    29    46    47   ar
    30    47    48   ar
    31    48    49   ar
    32    34    36    1
    33    36    37   ar
    34    37    38   ar
    35    38    39   ar
    36    39    40    1
    37    39    41   ar
    38    41    42   ar
    39    42    43    1
    40    34    35    1
    41     4     5   ar
    42     5     6   ar
    43    10    11    1
    44    11    12    1
    45    16    17   ar
    46    17    18   ar
    47    22    23   ar
    48    23    24    2
    49    23    19   ar
    50    18    13   ar
    51    12     7    1
    52     6     1   ar
    53    35    31    1
    54    49    45   ar
    55    42    36   ar
@<TRIPOS>MOLECULE
*****
 49 55 0 0 0
SMALL
GASTEIGER

@<TRIPOS>ATOM
      1 C          60.3639   90.1503    7.1469 C.ar    1  UNL1        0.1320
      2 C          59.5390   88.9330    7.4428 C.ar    1  UNL1        0.0374
      3 C          59.5906   88.3047    8.8039 C.ar    1  UNL1        0.0414
      4 C          60.4672   88.8938    9.8691 C.ar    1  UNL1        0.1579
      5 C          61.2922   90.1112    9.5731 C.ar    1  UNL1        0.1370
      6 N          61.2405   90.7394    8.2120 N.ar    1  UNL1       -0.2260
      7 N          60.2089   92.0351    3.0635 N.pl3   1  UNL1       -0.3041
      8 C          58.9689   91.9644    3.9045 C.3     1  UNL1        0.1123
      9 C          59.0205   91.3361    5.2656 C.3     1  UNL1        0.1136
     10 N          60.3122   90.7786    5.7858 N.pl3   1  UNL1       -0.2897
     11 C          61.5523   90.8493    4.9448 C.3     1  UNL1        0.1136
     12 C          61.5006   91.4775    3.5837 C.3     1  UNL1        0.1123
     13 C          60.0539   93.9198   -1.0198 C.ar    1  UNL1        0.0699
     14 C          58.9188   94.1169   -0.0592 C.ar    1  UNL1        0.0190
     15 C          58.9705   93.4887    1.3018 C.ar    1  UNL1        0.0160
     16 C          60.1573   92.6633    1.7024 C.ar    1  UNL1        0.0480
     17 C          61.2924   92.4663    0.7418 C.ar    1  UNL1        0.0160
     18 C          61.2407   93.0945   -0.6193 C.ar    1  UNL1        0.0190
     19 N          59.4920   94.9515   -4.7192 N.ar    1  UNL1       -0.2024
     20 N          60.3538   96.0784   -4.2318 N.ar    1  UNL1       -0.1442
     21 C          60.6692   95.8290   -2.7867 C.ar    1  UNL1        0.2073
     22 N          60.0023   94.5481   -2.3810 N.ar    1  UNL1       -0.2398
     23 C          59.2748   94.0058   -3.5753 C.ar    1  UNL1        0.3522
     24 O          58.4711   92.7400   -3.6183 O.2     1  UNL1       -0.2444
     25 C          58.9437   94.7974   -6.1069 C.3     1  UNL1        0.1099
     26 C          59.7133   95.3269   -7.2805 C.3     1  UNL1        0.0265
     27 C          57.5814   92.7448   -6.9318 C.3     1  UNL1        0.0021
     28 C          57.6257   94.1139   -6.3210 C.3     1  UNL1        0.0245
     29 O          60.5189   88.2655   11.2302 O.3     1  UNL1       -0.4712
     30 C          61.7823   87.6129   11.7075 C.3     1  UNL1        0.2374
     31 C          61.9619   86.1307   11.5626 C.3     1  UNL1        0.1909
     32 C          61.5045   85.2964   10.4030 C.3     1  UNL1        0.1783
     33 O          61.8903   83.8727   10.6756 O.3     1  UNL1       -0.3266
     34 C          62.5861   83.8272   12.0037 C.3     1  UNL1        0.2315
     35 O          62.6303   85.2227   12.5519 O.3     1  UNL1       -0.3254
     36 C          62.6919   82.3579   11.7208 C.ar    1  UNL1        0.0410
     37 C          63.2765   81.8843   10.4231 C.ar    1  UNL1        0.0022
     38 C          63.3823   80.4150   10.1401 C.ar    1  UNL1        0.0113
     39 C          62.9037   79.4194   11.1548 C.ar    1  UNL1        0.0585
     40 CL         63.0095   77.9502   10.8719 Cl      1  UNL1       -0.0822
     41 C          62.3191   79.8930   12.4525 C.ar    1  UNL1        0.0226
     42 C          62.2132   81.3623   12.7355 C.ar    1  UNL1        0.0591
     43 CL         61.6287   81.8360   14.0332 Cl      1  UNL1       -0.0824
     44 C          63.3040   83.4745   13.2726 C.3     1  UNL1        0.1897
     45 N          63.3771   84.4681   14.3940 N.ar    1  UNL1       -0.2246
     46 C          62.4502   84.5388   15.5712 C.ar    1  UNL1        0.1974
     47 N          62.8901   85.6797   16.4398 N.ar    1  UNL1       -0.2007
     48 C          64.0890   86.3142   15.7995 C.ar    1  UNL1        0.2210
     49 N          64.3900   85.5654   14.5351 N.ar    1  UNL1       -0.1450
@<TRIPOS>BOND
     1    27    28    1
     2    28    25    1
     3    25    26    1
     4    25    19    1
     5    19    20   ar
     6    20    21   ar
     7    21    22   ar
     8    22    13    1
     9    13    14   ar
    10    14    15   ar
    11    15    16   ar
    12    16     7    1
    13     7     8    1
    14     8     9    1
    15     9    10    1
    16    10     1    1
    17     1     2   ar
    18     2     3   ar
    19     3     4   ar
    20     4    29    1
    21    29    30    1
    22    31    30    1
    23    31    32    1
    24    32    33    1
    25    33    34    1
    26    34    44    1
    27    44    45    1
    28    45    46   ar
    29    46    47   ar
    30    47    48   ar
    31    48    49   ar
    32    34    36    1
    33    36    37   ar
    34    37    38   ar
    35    38    39   ar
    36    39    40    1
    37    39    41   ar
    38    41    42   ar
    39    42    43    1
    40    34    35    1
    41     4     5   ar
    42     5     6   ar
    43    10    11    1
    44    11    12    1
    45    16    17   ar
    46    17    18   ar
    47    22    23   ar
    48    23    24    2
    49    23    19   ar
    50    18    13   ar
    51    12     7    1
    52     6     1   ar
    53    35    31    1
    54    49    45   ar
    55    42    36   ar
