@<TRIPOS>MOLECULE
*****
 38 41 0 0 0
SMALL
GASTEIGER

@<TRIPOS>ATOM
      1 C          63.4392   84.9291   13.4119 C.3     1  UNL1        0.3254
      2 F          64.7306   85.6015   13.0506 F       1  UNL1       -0.1949
      3 F          62.0184   84.4553   13.4947 F       1  UNL1       -0.1949
      4 C          62.7454   85.6670   12.3054 C.ar    1  UNL1        0.1218
      5 C          62.0023   84.9066   11.2474 C.ar    1  UNL1        0.0202
      6 C          61.3086   85.6445   10.1409 C.ar    1  UNL1        0.0029
      7 C          61.3579   87.1429   10.0925 C.ar    1  UNL1        0.0192
      8 C          62.1011   87.9034   11.1506 C.ar    1  UNL1        0.0986
      9 N          62.7948   87.1654   12.2570 N.ar    1  UNL1       -0.2427
     10 C          60.6642   87.8808    8.9861 C.ar    1  UNL1        0.0017
     11 C          60.6627   89.3807    8.9707 C.ar    1  UNL1        0.0032
     12 C          59.9690   90.1187    7.8643 C.ar    1  UNL1        0.0369
     13 C          59.2768   89.3568    6.7733 C.ar    1  UNL1        0.1390
     14 C          59.2783   87.8568    6.7888 C.ar    1  UNL1        0.0369
     15 C          59.9720   87.1189    7.8952 C.ar    1  UNL1        0.0032
     16 O          58.5830   90.0947    5.6669 O.3     1  UNL1       -0.4666
     17 C          58.9218   91.5305    5.3954 C.3     1  UNL1        0.3081
     18 C          59.8192   91.8851    4.2469 C.3     1  UNL1        0.4380
     19 F          60.7164   92.2398    3.0984 F       1  UNL1       -0.1663
     20 F          60.9948   91.3276    4.9933 F       1  UNL1       -0.1663
     21 F          58.6435   92.4426    3.5005 F       1  UNL1       -0.1663
     22 O          64.8268   83.4534   15.6247 O.3     1  UNL1       -0.3755
     23 C          64.1330   84.1913   14.5183 C.3     1  UNL1        0.1932
     24 H          65.5730   83.9822   15.9478 H       1  UNL1        0.2110
     25 C          63.6310   82.8904   13.9655 C.ar    1  UNL1        0.0368
     26 C          62.5615   82.1296   14.6919 C.ar    1  UNL1        0.0028
     27 C          62.0595   80.8287   14.1391 C.ar    1  UNL1        0.0295
     28 C          62.6269   80.2885   12.8600 C.ar    1  UNL1        0.1424
     29 F          62.1249   78.9876   12.3072 F       1  UNL1       -0.2041
     30 C          63.6963   81.0492   12.1336 C.ar    1  UNL1        0.0590
     31 C          64.1984   82.3502   12.6864 C.ar    1  UNL1        0.1408
     32 F          65.2678   83.1109   11.9600 F       1  UNL1       -0.2043
     33 C          64.6350   85.4922   15.0712 C.3     1  UNL1        0.1679
     34 N          63.7225   86.3651   15.8806 N.ar    1  UNL1       -0.2078
     35 C          62.7763   85.9012   16.9481 C.ar    1  UNL1        0.2216
     36 N          62.0650   87.1046   17.4919 N.ar    1  UNL1       -0.1048
     37 N          62.5716   88.3123   16.7606 N.ar    1  UNL1       -0.0226
     38 N          63.5960   87.8553   15.7648 N.ar    1  UNL1       -0.0428
@<TRIPOS>BOND
     1    23    22    1
     2    23    33    1
     3    33    34    1
     4    34    35   ar
     5    35    36   ar
     6    36    37   ar
     7    37    38   ar
     8    23    25    1
     9    25    26   ar
    10    26    27   ar
    11    27    28   ar
    12    28    29    1
    13    28    30   ar
    14    30    31   ar
    15    31    32    1
    16    23     1    1
    17     1     2    1
    18     1     3    1
    19     1     4    1
    20     4     5   ar
    21     5     6   ar
    22     6     7   ar
    23     7    10    1
    24    10    11   ar
    25    11    12   ar
    26    12    13   ar
    27    13    16    1
    28    16    17    1
    29    17    18    1
    30    18    19    1
    31    18    20    1
    32    18    21    1
    33    13    14   ar
    34    14    15   ar
    35     7     8   ar
    36     8     9   ar
    37    38    34   ar
    38    31    25   ar
    39     9     4   ar
    40    15    10   ar
    41    22    24    1
@<TRIPOS>MOLECULE
*****
 38 41 0 0 0
SMALL
GASTEIGER

@<TRIPOS>ATOM
      1 C          63.5305   84.8417   13.3811 C.3     1  UNL1        0.3254
      2 F          64.7280   84.6810   12.4921 F       1  UNL1       -0.1949
      3 F          62.1954   85.1744   13.9782 F       1  UNL1       -0.1949
      4 C          62.8141   85.5721   12.2841 C.ar    1  UNL1        0.1218
      5 C          62.7946   87.0719   12.2700 C.ar    1  UNL1        0.0202
      6 C          62.0782   87.8024   11.1730 C.ar    1  UNL1        0.0029
      7 C          61.3814   87.0330   10.0902 C.ar    1  UNL1        0.0192
      8 C          61.4010   85.5331   10.1044 C.ar    1  UNL1        0.0986
      9 N          62.1173   84.8028   11.2013 N.ar    1  UNL1       -0.2427
     10 C          60.6650   87.7634    8.9933 C.ar    1  UNL1        0.0017
     11 C          59.9131   86.9951    7.9473 C.ar    1  UNL1        0.0032
     12 C          59.1967   87.7254    6.8503 C.ar    1  UNL1        0.0369
     13 C          59.2323   89.2241    6.7993 C.ar    1  UNL1        0.1390
     14 C          59.9843   89.9925    7.8454 C.ar    1  UNL1        0.0369
     15 C          60.7006   89.2621    8.9424 C.ar    1  UNL1        0.0032
     16 O          58.5159   89.9545    5.7024 O.3     1  UNL1       -0.4666
     17 C          58.7205   91.4299    5.5257 C.3     1  UNL1        0.3081
     18 C          58.9013   92.0028    4.1512 C.3     1  UNL1        0.4380
     19 F          59.0821   92.5755    2.7767 F       1  UNL1       -0.1663
     20 F          60.3769   92.1202    4.3943 F       1  UNL1       -0.1663
     21 F          57.4259   91.8853    3.9081 F       1  UNL1       -0.1663
     22 O          64.9633   83.3808   15.5749 O.3     1  UNL1       -0.3755
     23 C          64.2469   84.1112   14.4780 C.3     1  UNL1        0.1932
     24 H          65.7693   83.8651   15.8131 H       1  UNL1        0.2110
     25 C          63.6084   82.8267   14.0396 C.ar    1  UNL1        0.0368
     26 C          64.2520   81.9963   12.9690 C.ar    1  UNL1        0.0028
     27 C          63.6135   80.7118   12.5306 C.ar    1  UNL1        0.0295
     28 C          62.3313   80.2576   13.1629 C.ar    1  UNL1        0.1424
     29 F          61.6928   78.9730   12.7245 F       1  UNL1       -0.2041
     30 C          61.6877   81.0879   14.2335 C.ar    1  UNL1        0.0590
     31 C          62.3262   82.3725   14.6719 C.ar    1  UNL1        0.1408
     32 F          61.6826   83.2028   15.7425 F       1  UNL1       -0.2043
     33 C          64.8855   85.3958   14.9164 C.3     1  UNL1        0.1679
     34 N          64.0843   86.4102   15.6773 N.ar    1  UNL1       -0.2078
     35 C          63.2396   86.1395   16.8870 C.ar    1  UNL1        0.2216
     36 N          62.6203   87.4354   17.3195 N.ar    1  UNL1       -0.1048
     37 N          63.0823   88.5071   16.3771 N.ar    1  UNL1       -0.0226
     38 N          63.9870   87.8735   15.3622 N.ar    1  UNL1       -0.0428
@<TRIPOS>BOND
     1    23    22    1
     2    23    33    1
     3    33    34    1
     4    34    35   ar
     5    35    36   ar
     6    36    37   ar
     7    37    38   ar
     8    23    25    1
     9    25    26   ar
    10    26    27   ar
    11    27    28   ar
    12    28    29    1
    13    28    30   ar
    14    30    31   ar
    15    31    32    1
    16    23     1    1
    17     1     2    1
    18     1     3    1
    19     1     4    1
    20     4     5   ar
    21     5     6   ar
    22     6     7   ar
    23     7    10    1
    24    10    11   ar
    25    11    12   ar
    26    12    13   ar
    27    13    16    1
    28    16    17    1
    29    17    18    1
    30    18    19    1
    31    18    20    1
    32    18    21    1
    33    13    14   ar
    34    14    15   ar
    35     7     8   ar
    36     8     9   ar
    37    38    34   ar
    38    31    25   ar
    39     9     4   ar
    40    15    10   ar
    41    22    24    1
@<TRIPOS>MOLECULE
*****
 38 41 0 0 0
SMALL
GASTEIGER

@<TRIPOS>ATOM
      1 C          61.5074   87.7953   10.4090 C.3     1  UNL1        0.3254
      2 F          60.4964   87.8312   11.5166 F       1  UNL1       -0.1949
      3 F          62.6992   87.9908    9.5195 F       1  UNL1       -0.1949
      4 C          62.3788   88.7473   11.1736 C.ar    1  UNL1        0.1218
      5 C          62.7073   90.0921   10.5962 C.ar    1  UNL1        0.0202
      6 C          63.5786   91.0441   11.3608 C.ar    1  UNL1        0.0029
      7 C          64.1214   90.6512   12.7028 C.ar    1  UNL1        0.0192
      8 C          63.7928   89.3063   13.2802 C.ar    1  UNL1        0.0986
      9 N          62.9215   88.3544   12.5157 N.ar    1  UNL1       -0.2427
     10 C          64.9927   91.6032   13.4674 C.ar    1  UNL1        0.0017
     11 C          65.7228   92.6966   12.7453 C.ar    1  UNL1        0.0032
     12 C          66.5941   93.6486   13.5099 C.ar    1  UNL1        0.0369
     13 C          66.7353   93.5071   14.9965 C.ar    1  UNL1        0.1390
     14 C          66.0052   92.4136   15.7186 C.ar    1  UNL1        0.0369
     15 C          65.1339   91.4617   14.9540 C.ar    1  UNL1        0.0032
     16 O          67.6066   94.4590   15.7611 O.3     1  UNL1       -0.4666
     17 C          69.0119   94.0710   16.1142 C.3     1  UNL1        0.3081
     18 C          69.5155   92.6967   15.7856 C.3     1  UNL1        0.4380
     19 F          70.0191   91.3226   15.4570 F       1  UNL1       -0.1663
     20 F          70.0985   93.2166   14.5049 F       1  UNL1       -0.1663
     21 F          68.9326   92.1770   17.0662 F       1  UNL1       -0.1663
     22 O          59.7648   85.8914    8.8800 O.3     1  UNL1       -0.3755
     23 C          60.6361   86.8433    9.6445 C.3     1  UNL1        0.1932
     24 H          58.8369   86.1597    8.9691 H       1  UNL1        0.2110
     25 C          61.6783   85.7741    9.7881 C.ar    1  UNL1        0.0368
     26 C          61.9801   85.1975   11.1396 C.ar    1  UNL1        0.0028
     27 C          63.0222   84.1283   11.2831 C.ar    1  UNL1        0.0295
     28 C          63.7627   83.6357   10.0752 C.ar    1  UNL1        0.1424
     29 F          64.8049   82.5665   10.2187 F       1  UNL1       -0.2041
     30 C          63.4610   84.2123    8.7237 C.ar    1  UNL1        0.0590
     31 C          62.4188   85.2815    8.5801 C.ar    1  UNL1        0.1408
     32 F          62.1170   85.8581    7.2287 F       1  UNL1       -0.2043
     33 C          59.5938   87.9125    9.5009 C.3     1  UNL1        0.1679
     34 N          59.4687   88.6697    8.2122 N.ar    1  UNL1       -0.2078
     35 C          60.1918   89.9358    7.8596 C.ar    1  UNL1        0.2216
     36 N          59.7685   90.3423    6.4792 N.ar    1  UNL1       -0.1048
     37 N          58.7838   89.3275    5.9786 N.ar    1  UNL1       -0.0226
     38 N          58.5986   88.2938    7.0497 N.ar    1  UNL1       -0.0428
@<TRIPOS>BOND
     1    23    22    1
     2    23    33    1
     3    33    34    1
     4    34    35   ar
     5    35    36   ar
     6    36    37   ar
     7    37    38   ar
     8    23    25    1
     9    25    26   ar
    10    26    27   ar
    11    27    28   ar
    12    28    29    1
    13    28    30   ar
    14    30    31   ar
    15    31    32    1
    16    23     1    1
    17     1     2    1
    18     1     3    1
    19     1     4    1
    20     4     5   ar
    21     5     6   ar
    22     6     7   ar
    23     7    10    1
    24    10    11   ar
    25    11    12   ar
    26    12    13   ar
    27    13    16    1
    28    16    17    1
    29    17    18    1
    30    18    19    1
    31    18    20    1
    32    18    21    1
    33    13    14   ar
    34    14    15   ar
    35     7     8   ar
    36     8     9   ar
    37    38    34   ar
    38    31    25   ar
    39     9     4   ar
    40    15    10   ar
    41    22    24    1
@<TRIPOS>MOLECULE
*****
 38 41 0 0 0
SMALL
GASTEIGER

@<TRIPOS>ATOM
      1 C          61.5066   87.8753   10.2293 C.3     1  UNL1        0.3254
      2 F          60.4229   88.0126   11.2574 F       1  UNL1       -0.1949
      3 F          62.7674   87.9692    9.4223 F       1  UNL1       -0.1949
      4 C          62.3723   88.8139   11.0164 C.ar    1  UNL1        0.1218
      5 C          62.6835   90.1783   10.4765 C.ar    1  UNL1        0.0202
      6 C          63.5492   91.1170   11.2636 C.ar    1  UNL1        0.0029
      7 C          64.1036   90.6912   12.5907 C.ar    1  UNL1        0.0192
      8 C          63.7924   89.3267   13.1307 C.ar    1  UNL1        0.0986
      9 N          62.9267   88.3882   12.3436 N.ar    1  UNL1       -0.2427
     10 C          64.9693   91.6298   13.3779 C.ar    1  UNL1        0.0017
     11 C          65.1070   91.4570   14.8615 C.ar    1  UNL1        0.0032
     12 C          65.9727   92.3956   15.6487 C.ar    1  UNL1        0.0369
     13 C          66.7007   93.5069   14.9523 C.ar    1  UNL1        0.1390
     14 C          66.5630   93.6796   13.4686 C.ar    1  UNL1        0.0369
     15 C          65.6973   92.7411   12.6814 C.ar    1  UNL1        0.0032
     16 O          67.5664   94.4455   15.7394 O.3     1  UNL1       -0.4666
     17 C          68.9603   94.0409   16.1179 C.3     1  UNL1        0.3081
     18 C          69.4451   92.6528   15.8210 C.3     1  UNL1        0.4380
     19 F          69.9299   91.2648   15.5242 F       1  UNL1       -0.1663
     20 F          70.0352   93.1353   14.5291 F       1  UNL1       -0.1663
     21 F          68.8550   92.1704   17.1129 F       1  UNL1       -0.1663
     22 O          59.7752   85.9981    8.6551 O.3     1  UNL1       -0.3755
     23 C          60.6409   86.9367    9.4422 C.3     1  UNL1        0.1932
     24 H          58.8454   86.2567    8.7531 H       1  UNL1        0.2110
     25 C          61.6916   85.8723    9.5558 C.ar    1  UNL1        0.0368
     26 C          62.4566   85.4408    8.3398 C.ar    1  UNL1        0.0028
     27 C          63.5074   84.3764    8.4533 C.ar    1  UNL1        0.0295
     28 C          63.7932   83.7435    9.7829 C.ar    1  UNL1        0.1424
     29 F          64.8440   82.6791    9.8965 F       1  UNL1       -0.2041
     30 C          63.0282   84.1749   10.9989 C.ar    1  UNL1        0.0590
     31 C          61.9774   85.2394   10.8853 C.ar    1  UNL1        0.1408
     32 F          61.2125   85.6708   12.1013 F       1  UNL1       -0.2043
     33 C          59.5900   88.0011    9.3286 C.3     1  UNL1        0.1679
     34 N          59.4402   88.7739    8.0518 N.ar    1  UNL1       -0.2078
     35 C          60.2188   89.9961    7.6644 C.ar    1  UNL1        0.2216
     36 N          59.7453   90.4378    6.3114 N.ar    1  UNL1       -0.1048
     37 N          58.6741   89.4885    5.8625 N.ar    1  UNL1       -0.0226
     38 N          58.4856   88.4602    6.9382 N.ar    1  UNL1       -0.0428
@<TRIPOS>BOND
     1    23    22    1
     2    23    33    1
     3    33    34    1
     4    34    35   ar
     5    35    36   ar
     6    36    37   ar
     7    37    38   ar
     8    23    25    1
     9    25    26   ar
    10    26    27   ar
    11    27    28   ar
    12    28    29    1
    13    28    30   ar
    14    30    31   ar
    15    31    32    1
    16    23     1    1
    17     1     2    1
    18     1     3    1
    19     1     4    1
    20     4     5   ar
    21     5     6   ar
    22     6     7   ar
    23     7    10    1
    24    10    11   ar
    25    11    12   ar
    26    12    13   ar
    27    13    16    1
    28    16    17    1
    29    17    18    1
    30    18    19    1
    31    18    20    1
    32    18    21    1
    33    13    14   ar
    34    14    15   ar
    35     7     8   ar
    36     8     9   ar
    37    38    34   ar
    38    31    25   ar
    39     9     4   ar
    40    15    10   ar
    41    22    24    1
