@<TRIPOS>MOLECULE
*****
 21 21 0 0 0
SMALL
GASTEIGER

@<TRIPOS>ATOM
      1 N          65.6617   92.9743   11.5587 N.am    1  UNL1       -0.2985
      2 C          66.0255   94.4286   11.6096 C.2     1  UNL1        0.2368
      3 O          66.2397   95.1023   12.9326 O.2     1  UNL1       -0.2737
      4 H          65.5211   92.5321   10.6904 H       1  UNL1        0.1498
      5 C          66.1751   95.2093   10.3375 C.3     1  UNL1        0.1287
      6 N          65.0483   96.0705    9.8490 N.3     1  UNL1       -0.3150
      7 H          64.2651   96.0066   10.4993 H       1  UNL1        0.1192
      8 H          64.7516   95.7513    8.9268 H       1  UNL1        0.1192
      9 C          67.4516   95.1286    9.5538 C.3     1  UNL1        0.0307
     10 C          67.6855   93.9805    8.6173 C.3     1  UNL1        0.0436
     11 C          68.4407   92.7722    9.0860 C.2     1  UNL1        0.0504
     12 O          68.5393   92.4714   10.5521 O.co2   1  UNL1       -0.5492
     13 O          69.0974   91.8646    8.0883 O.co2   1  UNL1       -0.5492
     14 C          64.3472   91.2656   13.0085 C.3     1  UNL1        0.0295
     15 C          65.5121   92.1937   12.8308 C.3     1  UNL1        0.1286
     16 C          66.5273   92.3411   13.9251 C.ar    1  UNL1        0.1351
     17 N          66.2384   92.3795   15.3965 N.ar    1  UNL1       -0.2279
     18 C          67.5423   92.5382   16.1209 C.ar    1  UNL1        0.1187
     19 C          68.6370   92.5978   15.0972 C.ar    1  UNL1        0.0943
     20 N          68.0097   92.4760   13.7401 N.ar    1  UNL1       -0.3383
     21 H          68.4872   92.4834   12.8792 H       1  UNL1        0.1672
@<TRIPOS>UNITY_ATOM_ATTR
12 1
charge -1
@<TRIPOS>BOND
     1    14    15    1
     2    15     1    1
     3     1     2   am
     4     2     3    2
     5     2     5    1
     6     5     6    1
     7     5     9    1
     8     9    10    1
     9    10    11    1
    10    11    12   ar
    11    11    13   ar
    12    15    16    1
    13    16    17   ar
    14    17    18   ar
    15    18    19   ar
    16    19    20   ar
    17    20    16   ar
    18     1     4    1
    19     6     7    1
    20     6     8    1
    21    20    21    1
@<TRIPOS>MOLECULE
*****
 21 21 0 0 0
SMALL
GASTEIGER

@<TRIPOS>ATOM
      1 N          61.6320   85.5483   10.7773 N.am    1  UNL1       -0.2985
      2 C          61.7948   86.9524   11.2794 C.2     1  UNL1        0.2368
      3 O          62.9488   87.3005   12.1722 O.2     1  UNL1       -0.2737
      4 H          60.8745   85.3199   10.1913 H       1  UNL1        0.1498
      5 C          60.8036   88.0083   10.8887 C.3     1  UNL1        0.1287
      6 N          59.6199   88.2875   11.7666 N.3     1  UNL1       -0.3150
      7 H          59.6471   87.6723   12.5798 H       1  UNL1        0.1192
      8 H          58.7610   88.1203   11.2425 H       1  UNL1        0.1192
      9 C          60.9963   88.7852    9.6201 C.3     1  UNL1        0.0307
     10 C          60.0991   88.5355    8.4442 C.3     1  UNL1        0.0436
     11 C          59.7520   87.1303    8.0506 C.2     1  UNL1        0.0504
     12 O          58.3170   86.7376    7.8598 O.co2   1  UNL1       -0.5492
     13 O          60.8401   86.1178    7.8477 O.co2   1  UNL1       -0.5492
     14 C          63.6379   84.0117   10.1735 C.3     1  UNL1        0.0295
     15 C          62.6231   84.4924   11.1679 C.3     1  UNL1        0.1286
     16 C          62.5993   83.9171   12.5530 C.ar    1  UNL1        0.1351
     17 N          62.5430   82.4592   12.9014 N.ar    1  UNL1       -0.2279
     18 C          62.5366   82.3398   14.3966 C.ar    1  UNL1        0.1187
     19 C          62.5889   83.7239   14.9724 C.ar    1  UNL1        0.0943
     20 N          62.6276   84.6987   13.8330 N.ar    1  UNL1       -0.3383
     21 H          62.6651   85.6794   13.9114 H       1  UNL1        0.1672
@<TRIPOS>UNITY_ATOM_ATTR
12 1
charge -1
@<TRIPOS>BOND
     1    14    15    1
     2    15     1    1
     3     1     2   am
     4     2     3    2
     5     2     5    1
     6     5     6    1
     7     5     9    1
     8     9    10    1
     9    10    11    1
    10    11    12   ar
    11    11    13   ar
    12    15    16    1
    13    16    17   ar
    14    17    18   ar
    15    18    19   ar
    16    19    20   ar
    17    20    16   ar
    18     1     4    1
    19     6     7    1
    20     6     8    1
    21    20    21    1
@<TRIPOS>MOLECULE
*****
 21 21 0 0 0
SMALL
GASTEIGER

@<TRIPOS>ATOM
      1 N          65.9443   92.4232   12.0116 N.am    1  UNL1       -0.2985
      2 C          66.5098   92.4043   13.4008 C.2     1  UNL1        0.2368
      3 O          67.8925   92.9273   13.6549 O.2     1  UNL1       -0.2737
      4 H          65.0368   92.0799   11.8449 H       1  UNL1        0.1498
      5 C          65.6926   91.8625   14.5360 C.3     1  UNL1        0.1287
      6 N          65.3816   92.7318   15.7182 N.3     1  UNL1       -0.3150
      7 H          65.8010   93.6517   15.5834 H       1  UNL1        0.1192
      8 H          65.7617   92.3053   16.5632 H       1  UNL1        0.1192
      9 C          65.1863   90.4513   14.4889 C.3     1  UNL1        0.0307
     10 C          63.7686   90.1761   14.0835 C.3     1  UNL1        0.0436
     11 C          63.4612   89.7342   12.6835 C.2     1  UNL1        0.0504
     12 O          63.4716   90.7312   11.5629 O.co2   1  UNL1       -0.5492
     13 O          63.1434   88.2950   12.4040 O.co2   1  UNL1       -0.5492
     14 C          67.7817   92.0947   10.2046 C.3     1  UNL1        0.0295
     15 C          66.7615   92.9650   10.8765 C.3     1  UNL1        0.1286
     16 C          66.5584   94.3772   10.4133 C.ar    1  UNL1        0.1351
     17 N          67.6114   95.2756    9.8353 N.ar    1  UNL1       -0.2279
     18 C          66.9704   96.5926    9.5115 C.ar    1  UNL1        0.1187
     19 C          65.5213   96.5081    9.8895 C.ar    1  UNL1        0.0943
     20 N          65.2666   95.1390   10.4468 N.ar    1  UNL1       -0.3383
     21 H          64.4032   94.7998   10.7766 H       1  UNL1        0.1672
@<TRIPOS>UNITY_ATOM_ATTR
12 1
charge -1
@<TRIPOS>BOND
     1    14    15    1
     2    15     1    1
     3     1     2   am
     4     2     3    2
     5     2     5    1
     6     5     6    1
     7     5     9    1
     8     9    10    1
     9    10    11    1
    10    11    12   ar
    11    11    13   ar
    12    15    16    1
    13    16    17   ar
    14    17    18   ar
    15    18    19   ar
    16    19    20   ar
    17    20    16   ar
    18     1     4    1
    19     6     7    1
    20     6     8    1
    21    20    21    1
@<TRIPOS>MOLECULE
*****
 21 21 0 0 0
SMALL
GASTEIGER

@<TRIPOS>ATOM
      1 N          62.6057   85.2604   12.9627 N.am    1  UNL1       -0.2985
      2 C          62.4899   85.2593   11.4672 C.2     1  UNL1        0.2368
      3 O          63.1378   84.1696   10.6655 O.2     1  UNL1       -0.2737
      4 H          62.1804   85.9756   13.4889 H       1  UNL1        0.1498
      5 C          61.7261   86.3481   10.7733 C.3     1  UNL1        0.1287
      6 N          60.7493   87.1867   11.5431 N.3     1  UNL1       -0.3150
      7 H          60.7318   86.8813   12.5161 H       1  UNL1        0.1192
      8 H          59.8191   87.0837   11.1375 H       1  UNL1        0.1192
      9 C          61.9391   86.5981    9.3097 C.3     1  UNL1        0.0307
     10 C          60.8253   86.3491    8.3364 C.3     1  UNL1        0.0436
     11 C          59.6551   87.2858    8.2802 C.2     1  UNL1        0.0504
     12 O          59.7870   88.6834    8.8086 O.co2   1  UNL1       -0.5492
     13 O          58.3529   86.8249    7.6954 O.co2   1  UNL1       -0.5492
     14 C          64.5892   84.5077   14.4622 C.3     1  UNL1        0.0295
     15 C          63.3694   84.1717   13.6566 C.3     1  UNL1        0.1286
     16 C          62.9133   82.7471   13.5449 C.ar    1  UNL1        0.1351
     17 N          61.9051   82.0724   14.4270 N.ar    1  UNL1       -0.2279
     18 C          61.7539   80.6554   13.9587 C.ar    1  UNL1        0.1187
     19 C          62.6687   80.4544   12.7871 C.ar    1  UNL1        0.0943
     20 N          63.3852   81.7472   12.5313 N.ar    1  UNL1       -0.3383
     21 H          64.0487   81.9106   11.8226 H       1  UNL1        0.1672
@<TRIPOS>UNITY_ATOM_ATTR
12 1
charge -1
@<TRIPOS>BOND
     1    14    15    1
     2    15     1    1
     3     1     2   am
     4     2     3    2
     5     2     5    1
     6     5     6    1
     7     5     9    1
     8     9    10    1
     9    10    11    1
    10    11    12   ar
    11    11    13   ar
    12    15    16    1
    13    16    17   ar
    14    17    18   ar
    15    18    19   ar
    16    19    20   ar
    17    20    16   ar
    18     1     4    1
    19     6     7    1
    20     6     8    1
    21    20    21    1
@<TRIPOS>MOLECULE
*****
 21 21 0 0 0
SMALL
GASTEIGER

@<TRIPOS>ATOM
      1 N          62.2463   85.2050   11.5426 N.am    1  UNL1       -0.2985
      2 C          63.0937   84.1656   10.8707 C.2     1  UNL1        0.2368
      3 O          63.5211   84.3533    9.4452 O.2     1  UNL1       -0.2737
      4 H          61.9658   85.0818   12.4783 H       1  UNL1        0.1498
      5 C          63.5136   82.9384   11.6242 C.3     1  UNL1        0.1287
      6 N          64.9684   82.5932   11.7442 N.3     1  UNL1       -0.3150
      7 H          65.5257   83.2955   11.2580 H       1  UNL1        0.1192
      8 H          65.1360   81.6776   11.3271 H       1  UNL1        0.1192
      9 C          62.4788   82.0566   12.2578 C.3     1  UNL1        0.0307
     10 C          62.2994   82.0612   13.7470 C.3     1  UNL1        0.0436
     11 C          62.8440   83.1949   14.5645 C.2     1  UNL1        0.0504
     12 O          64.0611   82.9883   15.4165 O.co2   1  UNL1       -0.5492
     13 O          62.1714   84.5353   14.5299 O.co2   1  UNL1       -0.5492
     14 C          60.9093   86.3100    9.6085 C.3     1  UNL1        0.0295
     15 C          61.8264   86.4321   10.7891 C.3     1  UNL1        0.1286
     16 C          62.3235   87.7813   11.2163 C.ar    1  UNL1        0.1351
     17 N          63.0886   88.0825   12.4708 N.ar    1  UNL1       -0.2279
     18 C          63.3808   89.5536   12.4939 C.ar    1  UNL1        0.1187
     19 C          62.7961   90.1617   11.2536 C.ar    1  UNL1        0.0943
     20 N          62.1427   89.0664   10.4640 N.ar    1  UNL1       -0.3383
     21 H          61.6769   89.1723    9.6032 H       1  UNL1        0.1672
@<TRIPOS>UNITY_ATOM_ATTR
12 1
charge -1
@<TRIPOS>BOND
     1    14    15    1
     2    15     1    1
     3     1     2   am
     4     2     3    2
     5     2     5    1
     6     5     6    1
     7     5     9    1
     8     9    10    1
     9    10    11    1
    10    11    12   ar
    11    11    13   ar
    12    15    16    1
    13    16    17   ar
    14    17    18   ar
    15    18    19   ar
    16    19    20   ar
    17    20    16   ar
    18     1     4    1
    19     6     7    1
    20     6     8    1
    21    20    21    1
@<TRIPOS>MOLECULE
*****
 21 21 0 0 0
SMALL
GASTEIGER

@<TRIPOS>ATOM
      1 N          61.4745   85.5641   10.7330 N.am    1  UNL1       -0.2985
      2 C          62.4584   85.9876   11.7831 C.2     1  UNL1        0.2368
      3 O          62.7835   87.4407   11.9638 O.2     1  UNL1       -0.2737
      4 H          61.2611   84.6103   10.6145 H       1  UNL1        0.1498
      5 C          63.1170   84.9578   12.6526 C.3     1  UNL1        0.1287
      6 N          63.4770   85.2922   14.0698 N.3     1  UNL1       -0.3150
      7 H          63.2042   86.2541   14.2720 H       1  UNL1        0.1192
      8 H          64.4838   85.1902   14.1980 H       1  UNL1        0.1192
      9 C          63.4157   83.5938   12.1048 C.3     1  UNL1        0.0307
     10 C          62.4959   82.4474   12.4041 C.3     1  UNL1        0.0436
     11 C          62.3328   81.9654   13.8152 C.2     1  UNL1        0.0504
     12 O          61.1096   81.1904   14.2063 O.co2   1  UNL1       -0.5492
     13 O          63.3929   82.2585   14.8351 O.co2   1  UNL1       -0.5492
     14 C          60.5727   86.3048    8.4119 C.3     1  UNL1        0.0295
     15 C          60.8159   86.5937    9.8636 C.3     1  UNL1        0.1286
     16 C          60.4004   87.9122   10.4458 C.ar    1  UNL1        0.1351
     17 N          60.5921   89.2568    9.8092 N.ar    1  UNL1       -0.2279
     18 C          60.0304   90.2932   10.7368 C.ar    1  UNL1        0.1187
     19 C          59.4915   89.5891   11.9467 C.ar    1  UNL1        0.0943
     20 N          59.7202   88.1176   11.7668 N.ar    1  UNL1       -0.3383
     21 H          59.4681   87.4107   12.4040 H       1  UNL1        0.1672
@<TRIPOS>UNITY_ATOM_ATTR
12 1
charge -1
@<TRIPOS>BOND
     1    14    15    1
     2    15     1    1
     3     1     2   am
     4     2     3    2
     5     2     5    1
     6     5     6    1
     7     5     9    1
     8     9    10    1
     9    10    11    1
    10    11    12   ar
    11    11    13   ar
    12    15    16    1
    13    16    17   ar
    14    17    18   ar
    15    18    19   ar
    16    19    20   ar
    17    20    16   ar
    18     1     4    1
    19     6     7    1
    20     6     8    1
    21    20    21    1
@<TRIPOS>MOLECULE
*****
 21 21 0 0 0
SMALL
GASTEIGER

@<TRIPOS>ATOM
      1 N          61.5990   89.7745   12.7528 N.am    1  UNL1       -0.2985
      2 C          62.9385   90.3160   12.3497 C.2     1  UNL1        0.2368
      3 O          63.2196   90.6258   10.9092 O.2     1  UNL1       -0.2737
      4 H          61.4145   89.5711   13.6982 H       1  UNL1        0.1498
      5 C          63.9969   90.5477   13.3871 C.3     1  UNL1        0.1287
      6 N          64.4533   91.9431   13.6942 N.3     1  UNL1       -0.3150
      7 H          63.9422   92.6044   13.1095 H       1  UNL1        0.1192
      8 H          65.4524   92.0235   13.5049 H       1  UNL1        0.1192
      9 C          64.5988   89.3839   14.1173 C.3     1  UNL1        0.0307
     10 C          64.0266   88.9470   15.4332 C.3     1  UNL1        0.0436
     11 C          63.0060   89.7993   16.1273 C.2     1  UNL1        0.0504
     12 O          61.5690   89.3706   16.1614 O.co2   1  UNL1       -0.5492
     13 O          63.4224   91.0803   16.7874 O.co2   1  UNL1       -0.5492
     14 C          59.4227   90.5293   11.5513 C.3     1  UNL1        0.0295
     15 C          60.5406   89.5428   11.7155 C.3     1  UNL1        0.1286
     16 C          60.6001   88.3246   10.8423 C.ar    1  UNL1        0.1351
     17 N          60.0633   88.2134    9.4461 N.ar    1  UNL1       -0.2279
     18 C          60.3384   86.8238    8.9529 C.ar    1  UNL1        0.1187
     19 C          61.0452   86.0760   10.0443 C.ar    1  UNL1        0.0943
     20 N          61.2070   87.0036   11.2120 N.ar    1  UNL1       -0.3383
     21 H          61.6361   86.7839   12.0704 H       1  UNL1        0.1672
@<TRIPOS>UNITY_ATOM_ATTR
12 1
charge -1
@<TRIPOS>BOND
     1    14    15    1
     2    15     1    1
     3     1     2   am
     4     2     3    2
     5     2     5    1
     6     5     6    1
     7     5     9    1
     8     9    10    1
     9    10    11    1
    10    11    12   ar
    11    11    13   ar
    12    15    16    1
    13    16    17   ar
    14    17    18   ar
    15    18    19   ar
    16    19    20   ar
    17    20    16   ar
    18     1     4    1
    19     6     7    1
    20     6     8    1
    21    20    21    1
@<TRIPOS>MOLECULE
*****
 21 21 0 0 0
SMALL
GASTEIGER

@<TRIPOS>ATOM
      1 N          61.8092   89.9500   12.7707 N.am    1  UNL1       -0.2985
      2 C          63.1034   90.6472   12.4723 C.2     1  UNL1        0.2368
      3 O          63.5018   90.9128   11.0508 O.2     1  UNL1       -0.2737
      4 H          61.5477   89.7757   13.7037 H       1  UNL1        0.1498
      5 C          63.9992   91.0787   13.5955 C.3     1  UNL1        0.1287
      6 N          63.4453   91.2284   14.9814 N.3     1  UNL1       -0.3150
      7 H          62.4516   90.9982   14.9771 H       1  UNL1        0.1192
      8 H          63.5701   92.1908   15.2953 H       1  UNL1        0.1192
      9 C          65.4488   91.3606   13.3326 C.3     1  UNL1        0.0307
     10 C          66.3890   91.5858   14.4795 C.3     1  UNL1        0.0436
     11 C          66.5585   92.9622   15.0512 C.2     1  UNL1        0.0504
     12 O          66.9654   93.1341   16.4846 O.co2   1  UNL1       -0.5492
     13 O          66.3211   94.1668   14.1893 O.co2   1  UNL1       -0.5492
     14 C          59.7505   90.3756   11.2443 C.3     1  UNL1        0.0295
     15 C          60.9135   89.5185   11.6477 C.3     1  UNL1        0.1286
     16 C          61.1806   88.2298   10.9280 C.ar    1  UNL1        0.1351
     17 N          61.0247   86.8519   11.4998 N.ar    1  UNL1       -0.2279
     18 C          61.3984   85.8632   10.4354 C.ar    1  UNL1        0.1187
     19 C          61.7853   86.6302    9.2057 C.ar    1  UNL1        0.0943
     20 N          61.6507   88.0928    9.5102 N.ar    1  UNL1       -0.3383
     21 H          61.8380   88.8329    8.8885 H       1  UNL1        0.1672
@<TRIPOS>UNITY_ATOM_ATTR
12 1
charge -1
@<TRIPOS>BOND
     1    14    15    1
     2    15     1    1
     3     1     2   am
     4     2     3    2
     5     2     5    1
     6     5     6    1
     7     5     9    1
     8     9    10    1
     9    10    11    1
    10    11    12   ar
    11    11    13   ar
    12    15    16    1
    13    16    17   ar
    14    17    18   ar
    15    18    19   ar
    16    19    20   ar
    17    20    16   ar
    18     1     4    1
    19     6     7    1
    20     6     8    1
    21    20    21    1
@<TRIPOS>MOLECULE
*****
 21 21 0 0 0
SMALL
GASTEIGER

@<TRIPOS>ATOM
      1 N          62.2906   85.3943   11.5476 N.am    1  UNL1       -0.2985
      2 C          63.0905   84.3534   10.8219 C.2     1  UNL1        0.2368
      3 O          63.5160   84.5889    9.4029 O.2     1  UNL1       -0.2737
      4 H          62.0114   85.2398   12.4789 H       1  UNL1        0.1498
      5 C          63.4650   83.0770   11.5152 C.3     1  UNL1        0.1287
      6 N          64.8920   82.6147   11.5160 N.3     1  UNL1       -0.3150
      7 H          65.4664   83.2836   11.0032 H       1  UNL1        0.1192
      8 H          64.9533   81.7003   11.0682 H       1  UNL1        0.1192
      9 C          62.4125   82.2631   12.2078 C.3     1  UNL1        0.0307
     10 C          62.4469   82.1054   13.6991 C.3     1  UNL1        0.0436
     11 C          62.9135   83.2396   14.5626 C.2     1  UNL1        0.0504
     12 O          64.0968   83.0568   15.4661 O.co2   1  UNL1       -0.5492
     13 O          62.1968   84.5568   14.5227 O.co2   1  UNL1       -0.5492
     14 C          62.4841   87.9758   11.3277 C.3     1  UNL1        0.0295
     15 C          61.9161   86.6707   10.8543 C.3     1  UNL1        0.1286
     16 C          60.9737   86.6419    9.6877 C.ar    1  UNL1        0.1351
     17 N          59.7099   87.4390    9.5553 N.ar    1  UNL1       -0.2279
     18 C          59.0847   87.1008    8.2345 C.ar    1  UNL1        0.1187
     19 C          59.9620   86.0945    7.5505 C.ar    1  UNL1        0.0943
     20 N          61.1295   85.8110    8.4487 N.ar    1  UNL1       -0.3383
     21 H          61.8683   85.1887    8.2584 H       1  UNL1        0.1672
@<TRIPOS>UNITY_ATOM_ATTR
12 1
charge -1
@<TRIPOS>BOND
     1    14    15    1
     2    15     1    1
     3     1     2   am
     4     2     3    2
     5     2     5    1
     6     5     6    1
     7     5     9    1
     8     9    10    1
     9    10    11    1
    10    11    12   ar
    11    11    13   ar
    12    15    16    1
    13    16    17   ar
    14    17    18   ar
    15    18    19   ar
    16    19    20   ar
    17    20    16   ar
    18     1     4    1
    19     6     7    1
    20     6     8    1
    21    20    21    1
