@<TRIPOS>MOLECULE
*****
 31 34 0 0 0
SMALL
GASTEIGER

@<TRIPOS>ATOM
      1 C          63.7004   88.3062   15.7086 C.ar    1  UNL1        0.0284
      2 C          64.3598   87.7301   14.4907 C.ar    1  UNL1        0.0027
      3 C          64.6255   86.2562   14.4081 C.ar    1  UNL1        0.0339
      4 C          64.2318   85.3582   15.5433 C.ar    1  UNL1        0.1311
      5 N          63.5723   85.9344   16.7612 N.ar    1  UNL1       -0.2035
      6 C          63.3066   87.4084   16.8439 C.ar    1  UNL1        0.2196
      7 F          62.6472   87.9844   18.0618 F       1  UNL1       -0.1835
      8 N          64.4975   83.8843   15.4606 N.pl3   1  UNL1       -0.3144
      9 H          65.3335   83.5136   15.8251 H       1  UNL1        0.1485
     10 C          63.4893   82.9751   14.8227 C.3     1  UNL1        0.1169
     11 C          63.5992   82.6388   13.3650 C.ar    1  UNL1        0.0205
     12 C          64.6093   83.3415   12.5072 C.ar    1  UNL1        0.0962
     13 N          64.7191   83.0051   11.0495 N.ar    1  UNL1       -0.2426
     14 C          63.8188   81.9661   10.4496 C.ar    1  UNL1        0.0988
     15 C          62.8087   81.2634   11.3075 C.ar    1  UNL1        0.0243
     16 C          62.6989   81.5997   12.7651 C.ar    1  UNL1        0.0721
     17 C          61.6887   80.8970   13.6229 C.3     1  UNL1        0.4184
     18 F          60.6786   80.1942   14.4807 F       1  UNL1       -0.1659
     19 F          62.2719   79.5734   13.2253 F       1  UNL1       -0.1659
     20 F          61.1056   82.2205   14.0205 F       1  UNL1       -0.1659
     21 C          63.4347   89.7802   15.7913 C.3     1  UNL1        0.0603
     22 C          62.0817   90.0130   10.0548 C.3     1  UNL1        0.0307
     23 C          63.0310   90.6609   11.0187 C.2     1  UNL1        0.0074
     24 C          63.9937   91.7049   10.5359 C.2     1  UNL1        0.2278
     25 N          64.9430   92.3529   11.4997 N.2     1  UNL1       -0.0314
     26 C          64.9296   91.9567   12.9464 C.2     1  UNL1        0.3716
     27 N          65.7410   92.4176   14.1208 N.2     1  UNL1       -0.0311
     28 C          65.2798   91.6583   15.3295 C.2     1  UNL1        0.2319
     29 C          64.1833   90.7282   14.9020 C.2     1  UNL1        0.0328
     30 C          63.9669   90.9127   13.4292 C.2     1  UNL1        0.0704
     31 C          63.0176   90.2648   12.4653 C.3     1  UNL1        0.0598
@<TRIPOS>BOND
     1    22    23    1
     2    23    24    2
     3    24    25    1
     4    25    26    2
     5    26    27    1
     6    27    28    2
     7    28    29    1
     8    29    21    1
     9    21     1    1
    10     1     2   ar
    11     2     3   ar
    12     3     4   ar
    13     4     8    1
    14     8    10    1
    15    10    11    1
    16    11    12   ar
    17    12    13   ar
    18    13    14   ar
    19    14    15   ar
    20    15    16   ar
    21    16    17    1
    22    17    18    1
    23    17    19    1
    24    17    20    1
    25     4     5   ar
    26     5     6   ar
    27     6     7    1
    28    29    30    2
    29    30    31    1
    30    31    23    1
    31    30    26    1
    32     6     1   ar
    33    16    11   ar
    34     8     9    1
@<TRIPOS>MOLECULE
*****
 31 34 0 0 0
SMALL
GASTEIGER

@<TRIPOS>ATOM
      1 C          63.2589   89.1277   12.7392 C.ar    1  UNL1        0.0284
      2 C          64.0018   88.9784   14.0336 C.ar    1  UNL1        0.0027
      3 C          64.3278   87.6114   14.5581 C.ar    1  UNL1        0.0339
      4 C          63.9107   86.3936   13.7881 C.ar    1  UNL1        0.1311
      5 N          63.1677   86.5428   12.4935 N.ar    1  UNL1       -0.2035
      6 C          62.8418   87.9098   11.9691 C.ar    1  UNL1        0.2196
      7 F          62.0988   88.0590   10.6746 F       1  UNL1       -0.1835
      8 N          64.2367   85.0266   14.3125 N.pl3   1  UNL1       -0.3144
      9 H          64.1114   84.8229   15.2675 H       1  UNL1        0.1485
     10 C          64.7536   83.9698   13.3818 C.3     1  UNL1        0.1169
     11 C          63.9870   82.6940   13.1959 C.ar    1  UNL1        0.0205
     12 C          63.7976   81.7575   14.3521 C.ar    1  UNL1        0.0962
     13 N          63.0309   80.4817   14.1661 N.ar    1  UNL1       -0.2426
     14 C          62.4536   80.1424   12.8239 C.ar    1  UNL1        0.0988
     15 C          62.6430   81.0791   11.6676 C.ar    1  UNL1        0.0243
     16 C          63.4096   82.3548   11.8536 C.ar    1  UNL1        0.0721
     17 C          63.5990   83.2914   10.6973 C.3     1  UNL1        0.4184
     18 F          63.7883   84.2280    9.5410 F       1  UNL1       -0.1659
     19 F          62.3429   84.0169   11.0793 F       1  UNL1       -0.1659
     20 F          64.8550   82.5659   10.3154 F       1  UNL1       -0.1659
     21 C          62.9329   90.4947   12.2148 C.3     1  UNL1        0.0603
     22 C          66.5323   92.5381   16.4173 C.3     1  UNL1        0.0307
     23 C          66.3395   92.6651   14.9351 C.2     1  UNL1        0.0074
     24 C          67.2569   93.5385   14.1317 C.2     1  UNL1        0.2278
     25 N          67.0642   93.6655   12.6495 N.2     1  UNL1       -0.0314
     26 C          65.9541   92.9192   11.9708 C.2     1  UNL1        0.3716
     27 N          65.5222   92.8490   10.5361 N.2     1  UNL1       -0.0311
     28 C          64.3379   91.9322   10.4528 C.2     1  UNL1        0.2319
     29 C          64.0378   91.4358   11.8361 C.2     1  UNL1        0.0328
     30 C          65.0368   92.0458   12.7743 C.2     1  UNL1        0.0704
     31 C          65.2295   91.9188   14.2564 C.3     1  UNL1        0.0598
@<TRIPOS>BOND
     1    22    23    1
     2    23    24    2
     3    24    25    1
     4    25    26    2
     5    26    27    1
     6    27    28    2
     7    28    29    1
     8    29    21    1
     9    21     1    1
    10     1     2   ar
    11     2     3   ar
    12     3     4   ar
    13     4     8    1
    14     8    10    1
    15    10    11    1
    16    11    12   ar
    17    12    13   ar
    18    13    14   ar
    19    14    15   ar
    20    15    16   ar
    21    16    17    1
    22    17    18    1
    23    17    19    1
    24    17    20    1
    25     4     5   ar
    26     5     6   ar
    27     6     7    1
    28    29    30    2
    29    30    31    1
    30    31    23    1
    31    30    26    1
    32     6     1   ar
    33    16    11   ar
    34     8     9    1
@<TRIPOS>MOLECULE
*****
 31 34 0 0 0
SMALL
GASTEIGER

@<TRIPOS>ATOM
      1 C          63.8266   89.0193   15.5204 C.ar    1  UNL1        0.0284
      2 C          64.2405   88.4266   14.2061 C.ar    1  UNL1        0.0027
      3 C          64.2720   86.9371   14.0317 C.ar    1  UNL1        0.0339
      4 C          63.8897   86.0403   15.1717 C.ar    1  UNL1        0.1311
      5 N          63.4758   86.6331   16.4860 N.ar    1  UNL1       -0.2035
      6 C          63.4442   88.1225   16.6604 C.ar    1  UNL1        0.2196
      7 F          63.0303   88.7152   17.9747 F       1  UNL1       -0.1835
      8 N          63.9212   84.5508   14.9973 N.pl3   1  UNL1       -0.3144
      9 H          63.7246   83.9615   15.7611 H       1  UNL1        0.1485
     10 C          64.2525   83.9592   13.6593 C.3     1  UNL1        0.1169
     11 C          63.6845   82.6276   13.2667 C.ar    1  UNL1        0.0205
     12 C          63.4933   81.5590   14.3019 C.ar    1  UNL1        0.0962
     13 N          62.9253   80.2274   13.9093 N.ar    1  UNL1       -0.2426
     14 C          62.5485   79.9643   12.4815 C.ar    1  UNL1        0.0988
     15 C          62.7397   81.0329   11.4463 C.ar    1  UNL1        0.0243
     16 C          63.3077   82.3644   11.8389 C.ar    1  UNL1        0.0721
     17 C          63.4988   83.4330   10.8036 C.3     1  UNL1        0.4184
     18 F          63.6900   84.5015    9.7683 F       1  UNL1       -0.1659
     19 F          62.2221   84.0866   11.2424 F       1  UNL1       -0.1659
     20 F          64.7756   82.7793   10.3648 F       1  UNL1       -0.1659
     21 C          63.7950   90.5088   15.6947 C.3     1  UNL1        0.0603
     22 C          63.1123   91.2496    9.8829 C.3     1  UNL1        0.0307
     23 C          64.0405   91.6889   10.9763 C.2     1  UNL1        0.0074
     24 C          65.1960   92.5919   10.6614 C.2     1  UNL1        0.2278
     25 N          66.1242   93.0312   11.7548 N.2     1  UNL1       -0.0314
     26 C          65.8969   92.5675   13.1630 C.2     1  UNL1        0.3716
     27 N          66.6387   92.8332   14.4393 N.2     1  UNL1       -0.0311
     28 C          65.9417   92.0943   15.5431 C.2     1  UNL1        0.2319
     29 C          64.7690   91.3720   14.9489 C.2     1  UNL1        0.0328
     30 C          64.7413   91.6645   13.4779 C.2     1  UNL1        0.0704
     31 C          63.8131   91.2252   12.3846 C.3     1  UNL1        0.0598
@<TRIPOS>BOND
     1    22    23    1
     2    23    24    2
     3    24    25    1
     4    25    26    2
     5    26    27    1
     6    27    28    2
     7    28    29    1
     8    29    21    1
     9    21     1    1
    10     1     2   ar
    11     2     3   ar
    12     3     4   ar
    13     4     8    1
    14     8    10    1
    15    10    11    1
    16    11    12   ar
    17    12    13   ar
    18    13    14   ar
    19    14    15   ar
    20    15    16   ar
    21    16    17    1
    22    17    18    1
    23    17    19    1
    24    17    20    1
    25     4     5   ar
    26     5     6   ar
    27     6     7    1
    28    29    30    2
    29    30    31    1
    30    31    23    1
    31    30    26    1
    32     6     1   ar
    33    16    11   ar
    34     8     9    1
@<TRIPOS>MOLECULE
*****
 31 34 0 0 0
SMALL
GASTEIGER

@<TRIPOS>ATOM
      1 C          62.6342   89.3309   11.6771 C.ar    1  UNL1        0.0284
      2 C          61.9195   88.8131   10.4642 C.ar    1  UNL1        0.0027
      3 C          61.8223   87.3356   10.2246 C.ar    1  UNL1        0.0339
      4 C          62.4398   86.3757   11.1979 C.ar    1  UNL1        0.1311
      5 N          63.1544   86.8935   12.4109 N.ar    1  UNL1       -0.2035
      6 C          63.2516   88.3711   12.6505 C.ar    1  UNL1        0.2196
      7 F          63.9663   88.8887   13.8634 F       1  UNL1       -0.1835
      8 N          62.3426   84.8982   10.9583 N.pl3   1  UNL1       -0.3144
      9 H          61.5412   84.5209   10.5286 H       1  UNL1        0.1485
     10 C          63.4663   83.9956   11.3735 C.3     1  UNL1        0.1169
     11 C          63.1755   82.7404   12.1415 C.ar    1  UNL1        0.0205
     12 C          62.9442   81.4508   11.4113 C.ar    1  UNL1        0.0962
     13 N          62.6533   80.1956   12.1793 N.ar    1  UNL1       -0.2426
     14 C          62.5937   80.2300   13.6778 C.ar    1  UNL1        0.0988
     15 C          62.8250   81.5197   14.4081 C.ar    1  UNL1        0.0243
     16 C          63.1159   82.7748   13.6400 C.ar    1  UNL1        0.0721
     17 C          63.3472   84.0645   14.3704 C.3     1  UNL1        0.4184
     18 F          63.5785   85.3541   15.1007 F       1  UNL1       -0.1659
     19 F          61.8718   84.3350   14.3600 F       1  UNL1       -0.1659
     20 F          64.8225   83.7940   14.3807 F       1  UNL1       -0.1659
     21 C          62.7314   90.8084   11.9167 C.3     1  UNL1        0.0603
     22 C          66.1229   92.3770   16.4806 C.3     1  UNL1        0.0307
     23 C          66.1289   92.4718   14.9836 C.2     1  UNL1        0.0074
     24 C          67.2731   93.1383   14.2789 C.2     1  UNL1        0.2278
     25 N          67.2792   93.2332   12.7820 N.2     1  UNL1       -0.0314
     26 C          66.1410   92.6616   11.9896 C.2     1  UNL1        0.3716
     27 N          65.8730   92.6058   10.5148 N.2     1  UNL1       -0.0311
     28 C          64.5631   91.9048   10.3080 C.2     1  UNL1        0.2319
     29 C          64.0216   91.5274   11.6549 C.2     1  UNL1        0.0328
     30 C          64.9968   91.9951   12.6942 C.2     1  UNL1        0.0704
     31 C          64.9908   91.9002   14.1912 C.3     1  UNL1        0.0598
@<TRIPOS>BOND
     1    22    23    1
     2    23    24    2
     3    24    25    1
     4    25    26    2
     5    26    27    1
     6    27    28    2
     7    28    29    1
     8    29    21    1
     9    21     1    1
    10     1     2   ar
    11     2     3   ar
    12     3     4   ar
    13     4     8    1
    14     8    10    1
    15    10    11    1
    16    11    12   ar
    17    12    13   ar
    18    13    14   ar
    19    14    15   ar
    20    15    16   ar
    21    16    17    1
    22    17    18    1
    23    17    19    1
    24    17    20    1
    25     4     5   ar
    26     5     6   ar
    27     6     7    1
    28    29    30    2
    29    30    31    1
    30    31    23    1
    31    30    26    1
    32     6     1   ar
    33    16    11   ar
    34     8     9    1
@<TRIPOS>MOLECULE
*****
 31 34 0 0 0
SMALL
GASTEIGER

@<TRIPOS>ATOM
      1 C          61.9754   87.0610   10.4844 C.ar    1  UNL1        0.0284
      2 C          62.7689   87.3955   11.7126 C.ar    1  UNL1        0.0027
      3 C          63.0693   88.8271   12.0446 C.ar    1  UNL1        0.0339
      4 C          62.5761   89.9243   11.1485 C.ar    1  UNL1        0.1311
      5 N          61.7826   89.5897    9.9203 N.ar    1  UNL1       -0.2035
      6 C          61.4822   88.1581    9.5882 C.ar    1  UNL1        0.2196
      7 F          60.6887   87.8237    8.3600 F       1  UNL1       -0.1835
      8 N          62.8765   91.3559   11.4806 N.pl3   1  UNL1       -0.3144
      9 H          62.1421   91.9770   11.6908 H       1  UNL1        0.1485
     10 C          64.2957   91.8412   11.4925 C.3     1  UNL1        0.1169
     11 C          64.9849   92.1118   12.7971 C.ar    1  UNL1        0.0205
     12 C          64.4809   91.4746   14.0579 C.ar    1  UNL1        0.0962
     13 N          65.1700   91.7453   15.3625 N.ar    1  UNL1       -0.2426
     14 C          66.3632   92.6533   15.4061 C.ar    1  UNL1        0.0988
     15 C          66.8672   93.2905   14.1451 C.ar    1  UNL1        0.0243
     16 C          66.1781   93.0198   12.8407 C.ar    1  UNL1        0.0721
     17 C          66.6821   93.6571   11.5798 C.3     1  UNL1        0.4184
     18 F          67.1862   94.2944   10.3189 F       1  UNL1       -0.1659
     19 F          65.8579   94.8770   11.8668 F       1  UNL1       -0.1659
     20 F          67.5064   92.4372   11.2928 F       1  UNL1       -0.1659
     21 C          61.6751   85.6294   10.1523 C.3     1  UNL1        0.0603
     22 C          62.4009   83.8448   15.7273 C.3     1  UNL1        0.0307
     23 C          62.9554   83.5490   14.3653 C.2     1  UNL1        0.0074
     24 C          64.0252   82.5106   14.2003 C.2     1  UNL1        0.2278
     25 N          64.5797   82.2148   12.8383 N.2     1  UNL1       -0.0314
     26 C          64.0644   82.9574   11.6413 C.2     1  UNL1        0.3716
     27 N          64.4165   82.8819   10.1852 N.2     1  UNL1       -0.0311
     28 C          63.5643   83.8736    9.4501 C.2     1  UNL1        0.2319
     29 C          62.6855   84.5621   10.4520 C.2     1  UNL1        0.0328
     30 C          62.9946   83.9958   11.8062 C.2     1  UNL1        0.0704
     31 C          62.4401   84.2916   13.1682 C.3     1  UNL1        0.0598
@<TRIPOS>BOND
     1    22    23    1
     2    23    24    2
     3    24    25    1
     4    25    26    2
     5    26    27    1
     6    27    28    2
     7    28    29    1
     8    29    21    1
     9    21     1    1
    10     1     2   ar
    11     2     3   ar
    12     3     4   ar
    13     4     8    1
    14     8    10    1
    15    10    11    1
    16    11    12   ar
    17    12    13   ar
    18    13    14   ar
    19    14    15   ar
    20    15    16   ar
    21    16    17    1
    22    17    18    1
    23    17    19    1
    24    17    20    1
    25     4     5   ar
    26     5     6   ar
    27     6     7    1
    28    29    30    2
    29    30    31    1
    30    31    23    1
    31    30    26    1
    32     6     1   ar
    33    16    11   ar
    34     8     9    1
@<TRIPOS>MOLECULE
*****
 31 34 0 0 0
SMALL
GASTEIGER

@<TRIPOS>ATOM
      1 C          62.0372   86.9973   10.4918 C.ar    1  UNL1        0.0284
      2 C          62.8050   87.3475   11.7319 C.ar    1  UNL1        0.0027
      3 C          63.1407   88.7794   12.0269 C.ar    1  UNL1        0.0339
      4 C          62.7086   89.8611   11.0819 C.ar    1  UNL1        0.1311
      5 N          61.9407   89.5109    9.8418 N.ar    1  UNL1       -0.2035
      6 C          61.6050   88.0790    9.5467 C.ar    1  UNL1        0.2196
      7 F          60.8372   87.7289    8.3066 F       1  UNL1       -0.1835
      8 N          63.0443   91.2930   11.3769 N.pl3   1  UNL1       -0.3144
      9 H          62.9701   91.9721   10.6680 H       1  UNL1        0.1485
     10 C          63.4932   91.6900   12.7520 C.3     1  UNL1        0.1169
     11 C          64.9571   91.7928   13.0625 C.ar    1  UNL1        0.0205
     12 C          65.8739   92.5191   12.1234 C.ar    1  UNL1        0.0962
     13 N          67.3377   92.6219   12.4340 N.ar    1  UNL1       -0.2426
     14 C          67.8849   91.9984   13.6837 C.ar    1  UNL1        0.0988
     15 C          66.9681   91.2720   14.6229 C.ar    1  UNL1        0.0243
     16 C          65.5042   91.1693   14.3123 C.ar    1  UNL1        0.0721
     17 C          64.5875   90.4429   15.2515 C.3     1  UNL1        0.4184
     18 F          63.6707   89.7166   16.1906 F       1  UNL1       -0.1659
     19 F          64.3018   91.7296   15.9677 F       1  UNL1       -0.1659
     20 F          64.8731   89.1564   14.5352 F       1  UNL1       -0.1659
     21 C          61.7015   85.5654   10.1968 C.3     1  UNL1        0.0603
     22 C          62.4084   83.7483   15.7637 C.3     1  UNL1        0.0307
     23 C          62.9589   83.4519   14.4002 C.2     1  UNL1        0.0074
     24 C          64.0164   82.4018   14.2303 C.2     1  UNL1        0.2278
     25 N          64.5669   82.1054   12.8668 N.2     1  UNL1       -0.0314
     26 C          64.0599   82.8592   11.6732 C.2     1  UNL1        0.3716
     27 N          64.4105   82.7859   10.2166 N.2     1  UNL1       -0.0311
     28 C          63.5697   83.7907    9.4863 C.2     1  UNL1        0.2319
     29 C          62.6995   84.4851   10.4914 C.2     1  UNL1        0.0328
     30 C          63.0024   83.9093   11.8431 C.2     1  UNL1        0.0704
     31 C          62.4519   84.2057   13.2066 C.3     1  UNL1        0.0598
@<TRIPOS>BOND
     1    22    23    1
     2    23    24    2
     3    24    25    1
     4    25    26    2
     5    26    27    1
     6    27    28    2
     7    28    29    1
     8    29    21    1
     9    21     1    1
    10     1     2   ar
    11     2     3   ar
    12     3     4   ar
    13     4     8    1
    14     8    10    1
    15    10    11    1
    16    11    12   ar
    17    12    13   ar
    18    13    14   ar
    19    14    15   ar
    20    15    16   ar
    21    16    17    1
    22    17    18    1
    23    17    19    1
    24    17    20    1
    25     4     5   ar
    26     5     6   ar
    27     6     7    1
    28    29    30    2
    29    30    31    1
    30    31    23    1
    31    30    26    1
    32     6     1   ar
    33    16    11   ar
    34     8     9    1
@<TRIPOS>MOLECULE
*****
 31 34 0 0 0
SMALL
GASTEIGER

@<TRIPOS>ATOM
      1 C          62.2792   88.6480   11.1615 C.ar    1  UNL1        0.0284
      2 C          63.1690   88.8617   12.3499 C.ar    1  UNL1        0.0027
      3 C          63.9167   90.1528   12.5045 C.ar    1  UNL1        0.0339
      4 C          63.7746   91.2303   11.4706 C.ar    1  UNL1        0.1311
      5 N          62.8847   91.0165   10.2821 N.ar    1  UNL1       -0.2035
      6 C          62.1370   89.7254   10.1275 C.ar    1  UNL1        0.2196
      7 F          61.2472   89.5117    8.9390 F       1  UNL1       -0.1835
      8 N          64.5223   92.5214   11.6252 N.pl3   1  UNL1       -0.3144
      9 H          64.1622   93.2327   12.2028 H       1  UNL1        0.1485
     10 C          65.8188   92.7287   10.8999 C.3     1  UNL1        0.1169
     11 C          66.2168   94.1043   10.4536 C.ar    1  UNL1        0.0205
     12 C          65.4479   95.3000   10.9322 C.ar    1  UNL1        0.0962
     13 N          65.8459   96.6756   10.4859 N.ar    1  UNL1       -0.2426
     14 C          67.0129   96.8556    9.5608 C.ar    1  UNL1        0.0988
     15 C          67.7818   95.6599    9.0821 C.ar    1  UNL1        0.0243
     16 C          67.3838   94.2844    9.5285 C.ar    1  UNL1        0.0721
     17 C          68.1528   93.0887    9.0497 C.3     1  UNL1        0.4184
     18 F          68.9217   91.8931    8.5710 F       1  UNL1       -0.1659
     19 F          68.0160   93.5673    7.6347 F       1  UNL1       -0.1659
     20 F          68.2895   92.6101   10.4647 F       1  UNL1       -0.1659
     21 C          61.5315   87.3568   11.0069 C.3     1  UNL1        0.0603
     22 C          63.5370   82.9577   14.3857 C.3     1  UNL1        0.0307
     23 C          63.4654   83.3236   12.9328 C.2     1  UNL1        0.0074
     24 C          64.0298   82.3968   11.8973 C.2     1  UNL1        0.2278
     25 N          63.9582   82.7628   10.4444 N.2     1  UNL1       -0.0314
     26 C          63.3221   84.0555   10.0270 C.2     1  UNL1        0.3716
     27 N          63.1079   84.6799    8.6801 N.2     1  UNL1       -0.0311
     28 C          62.4111   85.9926    8.8832 C.2     1  UNL1        0.2319
     29 C          62.1946   86.1795   10.3556 C.2     1  UNL1        0.0328
     30 C          62.7577   84.9823   11.0626 C.2     1  UNL1        0.0704
     31 C          62.8293   84.6163   12.5155 C.3     1  UNL1        0.0598
@<TRIPOS>BOND
     1    22    23    1
     2    23    24    2
     3    24    25    1
     4    25    26    2
     5    26    27    1
     6    27    28    2
     7    28    29    1
     8    29    21    1
     9    21     1    1
    10     1     2   ar
    11     2     3   ar
    12     3     4   ar
    13     4     8    1
    14     8    10    1
    15    10    11    1
    16    11    12   ar
    17    12    13   ar
    18    13    14   ar
    19    14    15   ar
    20    15    16   ar
    21    16    17    1
    22    17    18    1
    23    17    19    1
    24    17    20    1
    25     4     5   ar
    26     5     6   ar
    27     6     7    1
    28    29    30    2
    29    30    31    1
    30    31    23    1
    31    30    26    1
    32     6     1   ar
    33    16    11   ar
    34     8     9    1
@<TRIPOS>MOLECULE
*****
 31 34 0 0 0
SMALL
GASTEIGER

@<TRIPOS>ATOM
      1 C          63.3893   89.2753   12.1972 C.ar    1  UNL1        0.0284
      2 C          63.3189   90.3686   11.1727 C.ar    1  UNL1        0.0027
      3 C          63.9961   91.6821   11.4297 C.ar    1  UNL1        0.0339
      4 C          64.7437   91.9024   12.7113 C.ar    1  UNL1        0.1311
      5 N          64.8141   90.8090   13.7359 N.ar    1  UNL1       -0.2035
      6 C          64.1370   89.4955   13.4789 C.ar    1  UNL1        0.2196
      7 F          64.2074   88.4022   14.5035 F       1  UNL1       -0.1835
      8 N          65.4209   93.2159   12.9683 N.pl3   1  UNL1       -0.3144
      9 H          65.0297   93.8548   13.6070 H       1  UNL1        0.1485
     10 C          66.6943   93.5560   12.2521 C.3     1  UNL1        0.1169
     11 C          66.6647   94.4683   11.0619 C.ar    1  UNL1        0.0205
     12 C          66.0555   95.8340   11.1787 C.ar    1  UNL1        0.0962
     13 N          66.0259   96.7464    9.9885 N.ar    1  UNL1       -0.2426
     14 C          66.6055   96.2931    8.6813 C.ar    1  UNL1        0.0988
     15 C          67.2147   94.9273    8.5645 C.ar    1  UNL1        0.0243
     16 C          67.2443   94.0150    9.7548 C.ar    1  UNL1        0.0721
     17 C          67.8535   92.6492    9.6379 C.3     1  UNL1        0.4184
     18 F          68.4627   91.2835    9.5210 F       1  UNL1       -0.1659
     19 F          66.5011   92.0295    9.8297 F       1  UNL1       -0.1659
     20 F          69.2059   93.2690    9.4461 F       1  UNL1       -0.1659
     21 C          62.7121   87.9618   11.9402 C.3     1  UNL1        0.0603
     22 C          62.7195   84.6506    7.0588 C.3     1  UNL1        0.0307
     23 C          61.7864   85.5535    7.8099 C.2     1  UNL1        0.0074
     24 C          60.3974   85.7915    7.2960 C.2     1  UNL1        0.2278
     25 N          59.4643   86.6944    8.0471 N.2     1  UNL1       -0.0314
     26 C          59.9201   87.3592    9.3120 C.2     1  UNL1        0.3716
     27 N          59.2289   88.2936   10.2602 N.2     1  UNL1       -0.0311
     28 C          60.1906   88.6330   11.3602 C.2     1  UNL1        0.2319
     29 C          61.4763   87.9085   11.0918 C.2     1  UNL1        0.0328
     30 C          61.3091   87.1212    9.8259 C.2     1  UNL1        0.0704
     31 C          62.2422   86.2183    9.0748 C.3     1  UNL1        0.0598
@<TRIPOS>BOND
     1    22    23    1
     2    23    24    2
     3    24    25    1
     4    25    26    2
     5    26    27    1
     6    27    28    2
     7    28    29    1
     8    29    21    1
     9    21     1    1
    10     1     2   ar
    11     2     3   ar
    12     3     4   ar
    13     4     8    1
    14     8    10    1
    15    10    11    1
    16    11    12   ar
    17    12    13   ar
    18    13    14   ar
    19    14    15   ar
    20    15    16   ar
    21    16    17    1
    22    17    18    1
    23    17    19    1
    24    17    20    1
    25     4     5   ar
    26     5     6   ar
    27     6     7    1
    28    29    30    2
    29    30    31    1
    30    31    23    1
    31    30    26    1
    32     6     1   ar
    33    16    11   ar
    34     8     9    1
@<TRIPOS>MOLECULE
*****
 31 34 0 0 0
SMALL
GASTEIGER

@<TRIPOS>ATOM
      1 C          63.3460   84.2206   14.9692 C.ar    1  UNL1        0.0284
      2 C          62.1130   84.6008   15.7339 C.ar    1  UNL1        0.0027
      3 C          62.0564   85.9107   16.4626 C.ar    1  UNL1        0.0339
      4 C          63.2329   86.8405   16.4264 C.ar    1  UNL1        0.1311
      5 N          64.4660   86.4602   15.6616 N.ar    1  UNL1       -0.2035
      6 C          64.5226   85.1503   14.9330 C.ar    1  UNL1        0.2196
      7 F          65.7557   84.7702   14.1682 F       1  UNL1       -0.1835
      8 N          63.1763   88.1504   17.1551 N.pl3   1  UNL1       -0.3144
      9 H          63.4430   88.1991   18.1015 H       1  UNL1        0.1485
     10 C          62.7134   89.3860   16.4417 C.3     1  UNL1        0.1169
     11 C          63.7131   90.4054   15.9817 C.ar    1  UNL1        0.0205
     12 C          64.1182   91.5239   16.8953 C.ar    1  UNL1        0.0962
     13 N          65.1179   92.5433   16.4353 N.ar    1  UNL1       -0.2426
     14 C          65.7124   92.4441   15.0618 C.ar    1  UNL1        0.0988
     15 C          65.3072   91.3255   14.1482 C.ar    1  UNL1        0.0243
     16 C          64.3076   90.3062   14.6082 C.ar    1  UNL1        0.0721
     17 C          63.9025   89.1876   13.6945 C.3     1  UNL1        0.4184
     18 F          63.4974   88.0690   12.7809 F       1  UNL1       -0.1659
     19 F          65.0402   88.3559   14.2083 F       1  UNL1       -0.1659
     20 F          62.7648   90.0193   13.1808 F       1  UNL1       -0.1659
     21 C          63.4026   82.9107   14.2405 C.3     1  UNL1        0.0603
     22 C          61.1093   87.0780   10.7526 C.3     1  UNL1        0.0307
     23 C          61.9906   85.8695   10.6395 C.2     1  UNL1        0.0074
     24 C          62.5372   85.4624    9.3033 C.2     1  UNL1        0.2278
     25 N          63.4185   84.2539    9.1901 N.2     1  UNL1       -0.0314
     26 C          63.7532   83.4525   10.4131 C.2     1  UNL1        0.3716
     27 N          64.5899   82.2232   10.6097 N.2     1  UNL1       -0.0311
     28 C          64.5604   81.8705   12.0674 C.2     1  UNL1        0.2319
     29 C          63.7055   82.8820   12.7717 C.2     1  UNL1        0.0328
     30 C          63.2067   83.8597   11.7493 C.2     1  UNL1        0.0704
     31 C          62.3254   85.0682   11.8625 C.3     1  UNL1        0.0598
@<TRIPOS>BOND
     1    22    23    1
     2    23    24    2
     3    24    25    1
     4    25    26    2
     5    26    27    1
     6    27    28    2
     7    28    29    1
     8    29    21    1
     9    21     1    1
    10     1     2   ar
    11     2     3   ar
    12     3     4   ar
    13     4     8    1
    14     8    10    1
    15    10    11    1
    16    11    12   ar
    17    12    13   ar
    18    13    14   ar
    19    14    15   ar
    20    15    16   ar
    21    16    17    1
    22    17    18    1
    23    17    19    1
    24    17    20    1
    25     4     5   ar
    26     5     6   ar
    27     6     7    1
    28    29    30    2
    29    30    31    1
    30    31    23    1
    31    30    26    1
    32     6     1   ar
    33    16    11   ar
    34     8     9    1
