@<TRIPOS>MOLECULE
*****
 33 37 0 0 0
SMALL
GASTEIGER

@<TRIPOS>ATOM
      1 O          58.5454   87.2268    6.5556 O.2     1  UNL1       -0.1730
      2 S          59.4279   87.0375    7.7537 S.O2    1  UNL1       -0.0100
      3 O          59.1162   85.6061    7.4310 O.2     1  UNL1       -0.1730
      4 C          60.2022   86.3511    8.8397 C.3     1  UNL1        0.1508
      5 C          60.9816   87.1618    9.8323 C.3     1  UNL1        0.0255
      6 C          60.9868   88.6588    9.7389 C.3     1  UNL1        0.0087
      7 C          60.9921   90.1559    9.6455 C.3     1  UNL1        0.0004
      8 C          61.7715   90.9666   10.6381 C.3     1  UNL1        0.0020
      9 C          62.5458   90.2802   11.7241 C.3     1  UNL1        0.0268
     10 C          62.5406   88.7831   11.8175 C.3     1  UNL1        0.1419
     11 C          63.3148   88.0967   12.9035 C.ar    1  UNL1        0.0616
     12 C          64.0943   88.9074   13.8961 C.ar    1  UNL1        0.1407
     13 F          64.3164   90.3773   14.0958 F       1  UNL1       -0.2043
     14 C          64.8685   88.2210   14.9821 C.ar    1  UNL1        0.0319
     15 C          64.8634   86.7239   15.0755 C.ar    1  UNL1        0.0351
     16 C          64.0839   85.9132   14.0829 C.ar    1  UNL1        0.1737
     17 F          64.0787   84.4161   14.1763 F       1  UNL1       -0.2010
     18 C          63.3096   86.5996   12.9969 C.ar    1  UNL1        0.1654
     19 O          62.5302   85.7890   12.0043 O.3     1  UNL1       -0.4733
     20 C          61.7559   86.4753   10.9183 C.3     1  UNL1        0.2074
     21 C          61.7611   87.9725   10.8249 C.3     1  UNL1        0.0685
     22 C          60.2126   89.3452    8.6529 C.3     1  UNL1        0.0255
     23 C          59.4331   88.5345    7.6604 C.3     1  UNL1        0.1508
     24 S          63.3200   89.5938   12.8101 S.O2    1  UNL1        0.0093
     25 O          64.0668   89.7993   12.6215 O.2     1  UNL1       -0.1684
     26 O          62.3666   89.7835   13.9525 O.2     1  UNL1       -0.1684
     27 C          64.0995   90.4045   13.8027 C.ar    1  UNL1        0.1059
     28 C          65.4657   90.9122   13.4485 C.ar    1  UNL1        0.0192
     29 C          66.2452   91.7229   14.4411 C.ar    1  UNL1        0.0127
     30 C          65.6584   92.0259   15.7879 C.ar    1  UNL1        0.0578
     31 CL         66.4378   92.8365   16.7804 Cl      1  UNL1       -0.0822
     32 C          64.2921   91.5181   16.1421 C.ar    1  UNL1        0.0127
     33 C          63.5126   90.7074   15.1495 C.ar    1  UNL1        0.0192
@<TRIPOS>BOND
     1     1     2    2
     2     2     3    2
     3     2     4    1
     4     4     5    1
     5     5     6    1
     6     6     7    1
     7     7     8    1
     8     8     9    1
     9     9    10    1
    10    10    24    1
    11    24    25    2
    12    24    26    2
    13    24    27    1
    14    27    28   ar
    15    28    29   ar
    16    29    30   ar
    17    30    31    1
    18    30    32   ar
    19    32    33   ar
    20    10    11    1
    21    11    12   ar
    22    12    13    1
    23    12    14   ar
    24    14    15   ar
    25    15    16   ar
    26    16    17    1
    27    16    18   ar
    28    18    19    1
    29    19    20    1
    30    21    20    1
    31     6    22    1
    32    22    23    1
    33    23     2    1
    34    21     6    1
    35    21    10    1
    36    33    27   ar
    37    18    11   ar
@<TRIPOS>MOLECULE
*****
 33 37 0 0 0
SMALL
GASTEIGER

@<TRIPOS>ATOM
      1 O          67.4909   94.1840   15.1138 O.2     1  UNL1       -0.1730
      2 S          66.8014   92.8683   14.9052 S.O2    1  UNL1       -0.0100
      3 O          67.5110   92.5885   16.1968 O.2     1  UNL1       -0.1730
      4 C          66.3583   91.4555   15.1451 C.3     1  UNL1        0.1508
      5 C          65.4451   90.7793   14.1659 C.3     1  UNL1        0.0255
      6 C          64.9749   91.5159   12.9468 C.3     1  UNL1        0.0087
      7 C          64.5047   92.2526   11.7277 C.3     1  UNL1        0.0004
      8 C          63.5915   91.5764   10.7486 C.3     1  UNL1        0.0020
      9 C          63.1484   90.1636   10.9885 C.3     1  UNL1        0.0268
     10 C          63.6186   89.4270   12.2075 C.3     1  UNL1        0.1419
     11 C          63.1755   88.0141   12.4475 C.ar    1  UNL1        0.0616
     12 C          62.2623   87.3379   11.4683 C.ar    1  UNL1        0.1407
     13 F          61.6167   87.7609   10.1822 F       1  UNL1       -0.2043
     14 C          61.8192   85.9251   11.7082 C.ar    1  UNL1        0.0319
     15 C          62.2894   85.1884   12.9274 C.ar    1  UNL1        0.0351
     16 C          63.2027   85.8645   13.9066 C.ar    1  UNL1        0.1737
     17 F          63.6728   85.1279   15.1256 F       1  UNL1       -0.2010
     18 C          63.6457   87.2774   13.6666 C.ar    1  UNL1        0.1654
     19 O          64.5590   87.9536   14.6458 O.3     1  UNL1       -0.4733
     20 C          65.0020   89.3664   14.4059 C.3     1  UNL1        0.2074
     21 C          64.5318   90.1031   13.1867 C.3     1  UNL1        0.0685
     22 C          65.4180   92.9288   12.7069 C.3     1  UNL1        0.0255
     23 C          66.3312   93.6049   13.6861 C.3     1  UNL1        0.1508
     24 S          62.7054   88.7508   11.2284 S.O2    1  UNL1        0.0093
     25 O          63.0233   88.4662   10.5550 O.2     1  UNL1       -0.1684
     26 O          61.3558   88.8268   11.8786 O.2     1  UNL1       -0.1684
     27 C          61.7921   88.0747   10.2492 C.ar    1  UNL1        0.1059
     28 C          60.3285   88.4028   10.2387 C.ar    1  UNL1        0.0192
     29 C          59.4153   87.7266    9.2595 C.ar    1  UNL1        0.0127
     30 C          59.9657   86.7223    8.2908 C.ar    1  UNL1        0.0578
     31 CL         59.0524   86.0462    7.3116 Cl      1  UNL1       -0.0822
     32 C          61.4293   86.3941    8.3013 C.ar    1  UNL1        0.0127
     33 C          62.3426   87.0703    9.2804 C.ar    1  UNL1        0.0192
@<TRIPOS>BOND
     1     1     2    2
     2     2     3    2
     3     2     4    1
     4     4     5    1
     5     5     6    1
     6     6     7    1
     7     7     8    1
     8     8     9    1
     9     9    10    1
    10    10    24    1
    11    24    25    2
    12    24    26    2
    13    24    27    1
    14    27    28   ar
    15    28    29   ar
    16    29    30   ar
    17    30    31    1
    18    30    32   ar
    19    32    33   ar
    20    10    11    1
    21    11    12   ar
    22    12    13    1
    23    12    14   ar
    24    14    15   ar
    25    15    16   ar
    26    16    17    1
    27    16    18   ar
    28    18    19    1
    29    19    20    1
    30    21    20    1
    31     6    22    1
    32    22    23    1
    33    23     2    1
    34    21     6    1
    35    21    10    1
    36    33    27   ar
    37    18    11   ar
@<TRIPOS>MOLECULE
*****
 33 37 0 0 0
SMALL
GASTEIGER

@<TRIPOS>ATOM
      1 O          63.1168   79.9168   12.4664 O.2     1  UNL1       -0.1730
      2 S          62.9908   81.3880   12.2024 S.O2    1  UNL1       -0.0100
      3 O          62.3528   80.8446   10.9584 O.2     1  UNL1       -0.1730
      4 C          62.6433   82.6705   11.5064 C.3     1  UNL1        0.1508
      5 C          62.9775   83.9854   12.1462 C.3     1  UNL1        0.0255
      6 C          63.6592   84.0179   13.4818 C.3     1  UNL1        0.0087
      7 C          64.3410   84.0504   14.8175 C.3     1  UNL1        0.0004
      8 C          64.6752   85.3653   15.4572 C.3     1  UNL1        0.0020
      9 C          64.3276   86.6478   14.7612 C.3     1  UNL1        0.0268
     10 C          63.6459   86.6153   13.4256 C.3     1  UNL1        0.1419
     11 C          63.2983   87.8978   12.7295 C.ar    1  UNL1        0.0616
     12 C          63.6325   89.2128   13.3692 C.ar    1  UNL1        0.1407
     13 F          64.2921   89.6071   14.6574 F       1  UNL1       -0.2043
     14 C          63.2849   90.4952   12.6732 C.ar    1  UNL1        0.0319
     15 C          62.6031   90.4628   11.3375 C.ar    1  UNL1        0.0351
     16 C          62.2689   89.1479   10.6978 C.ar    1  UNL1        0.1737
     17 F          61.5872   89.1154    9.3621 F       1  UNL1       -0.2010
     18 C          62.6165   87.8653   11.3938 C.ar    1  UNL1        0.1654
     19 O          62.2823   86.5504   10.7541 O.3     1  UNL1       -0.4733
     20 C          62.6299   85.2679   11.4501 C.3     1  UNL1        0.2074
     21 C          63.3117   85.3004   12.7859 C.3     1  UNL1        0.0685
     22 C          64.0068   82.7354   14.1778 C.3     1  UNL1        0.0255
     23 C          63.6726   81.4205   13.5381 C.3     1  UNL1        0.1508
     24 S          63.9801   87.9303   14.0653 S.O2    1  UNL1        0.0093
     25 O          64.3368   88.4846   13.6171 O.2     1  UNL1       -0.1684
     26 O          63.4958   87.7806   15.4770 O.2     1  UNL1       -0.1684
     27 C          64.3143   89.2452   14.7050 C.ar    1  UNL1        0.1059
     28 C          63.3683   89.8605   15.6931 C.ar    1  UNL1        0.0192
     29 C          63.7025   91.1754   16.3328 C.ar    1  UNL1        0.0127
     30 C          64.9827   91.8751   15.9844 C.ar    1  UNL1        0.0578
     31 CL         65.3169   93.1901   16.6241 Cl      1  UNL1       -0.0822
     32 C          65.9288   91.2598   14.9962 C.ar    1  UNL1        0.0127
     33 C          65.5946   89.9449   14.3565 C.ar    1  UNL1        0.0192
@<TRIPOS>BOND
     1     1     2    2
     2     2     3    2
     3     2     4    1
     4     4     5    1
     5     5     6    1
     6     6     7    1
     7     7     8    1
     8     8     9    1
     9     9    10    1
    10    10    24    1
    11    24    25    2
    12    24    26    2
    13    24    27    1
    14    27    28   ar
    15    28    29   ar
    16    29    30   ar
    17    30    31    1
    18    30    32   ar
    19    32    33   ar
    20    10    11    1
    21    11    12   ar
    22    12    13    1
    23    12    14   ar
    24    14    15   ar
    25    15    16   ar
    26    16    17    1
    27    16    18   ar
    28    18    19    1
    29    19    20    1
    30    21    20    1
    31     6    22    1
    32    22    23    1
    33    23     2    1
    34    21     6    1
    35    21    10    1
    36    33    27   ar
    37    18    11   ar
@<TRIPOS>MOLECULE
*****
 33 37 0 0 0
SMALL
GASTEIGER

@<TRIPOS>ATOM
      1 O          59.5708   87.0614    9.3717 O.2     1  UNL1       -0.1730
      2 S          60.5001   88.2216    9.5729 S.O2    1  UNL1       -0.0100
      3 O          59.8110   88.6553    8.3131 O.2     1  UNL1       -0.1730
      4 C          61.1901   89.5323    9.3366 C.3     1  UNL1        0.1508
      5 C          62.2465   90.0065   10.2902 C.3     1  UNL1        0.0255
      6 C          62.6128   89.1699   11.4801 C.3     1  UNL1        0.0087
      7 C          62.9792   88.3334   12.6700 C.3     1  UNL1        0.0004
      8 C          64.0355   88.8075   13.6235 C.3     1  UNL1        0.0020
      9 C          64.7255   90.1182   13.3872 C.3     1  UNL1        0.0268
     10 C          64.3591   90.9548   12.1973 C.3     1  UNL1        0.1419
     11 C          65.0491   92.2656   11.9609 C.ar    1  UNL1        0.0616
     12 C          66.1055   92.7397   12.9145 C.ar    1  UNL1        0.1407
     13 F          66.7049   92.1773   14.1693 F       1  UNL1       -0.2043
     14 C          66.7955   94.0505   12.6782 C.ar    1  UNL1        0.0319
     15 C          66.4291   94.8871   11.4883 C.ar    1  UNL1        0.0351
     16 C          65.3728   94.4129   10.5347 C.ar    1  UNL1        0.1737
     17 F          65.0064   95.2495    9.3448 F       1  UNL1       -0.2010
     18 C          64.6828   93.1021   10.7711 C.ar    1  UNL1        0.1654
     19 O          63.6265   92.6280    9.8175 O.3     1  UNL1       -0.4733
     20 C          62.9365   91.3173   10.0538 C.3     1  UNL1        0.2074
     21 C          63.3028   90.4806   11.2437 C.3     1  UNL1        0.0685
     22 C          61.9228   87.8592   11.7164 C.3     1  UNL1        0.0255
     23 C          60.8665   87.3850   10.7628 C.3     1  UNL1        0.1508
     24 S          65.4155   91.4289   13.1509 S.O2    1  UNL1        0.0093
     25 O          66.1784   91.3516   12.9330 O.2     1  UNL1       -0.1684
     26 O          64.6386   91.9483   14.3242 O.2     1  UNL1       -0.1684
     27 C          66.4718   91.9031   14.1045 C.ar    1  UNL1        0.1059
     28 C          67.9220   91.7060   13.7758 C.ar    1  UNL1        0.0192
     29 C          68.9783   92.1801   14.7294 C.ar    1  UNL1        0.0127
     30 C          68.5845   92.8514   16.0117 C.ar    1  UNL1        0.0578
     31 CL         69.6408   93.3256   16.9652 Cl      1  UNL1       -0.0822
     32 C          67.1342   93.0486   16.3404 C.ar    1  UNL1        0.0127
     33 C          66.0779   92.5744   15.3868 C.ar    1  UNL1        0.0192
@<TRIPOS>BOND
     1     1     2    2
     2     2     3    2
     3     2     4    1
     4     4     5    1
     5     5     6    1
     6     6     7    1
     7     7     8    1
     8     8     9    1
     9     9    10    1
    10    10    24    1
    11    24    25    2
    12    24    26    2
    13    24    27    1
    14    27    28   ar
    15    28    29   ar
    16    29    30   ar
    17    30    31    1
    18    30    32   ar
    19    32    33   ar
    20    10    11    1
    21    11    12   ar
    22    12    13    1
    23    12    14   ar
    24    14    15   ar
    25    15    16   ar
    26    16    17    1
    27    16    18   ar
    28    18    19    1
    29    19    20    1
    30    21    20    1
    31     6    22    1
    32    22    23    1
    33    23     2    1
    34    21     6    1
    35    21    10    1
    36    33    27   ar
    37    18    11   ar
@<TRIPOS>MOLECULE
*****
 33 37 0 0 0
SMALL
GASTEIGER

@<TRIPOS>ATOM
      1 O          59.6744   90.5219    5.9392 O.2     1  UNL1       -0.1730
      2 S          59.6277   91.3799    4.7097 S.O2    1  UNL1       -0.0100
      3 O          58.1760   91.3868    5.0875 O.2     1  UNL1       -0.1730
      4 C          59.0768   92.2403    3.6114 C.3     1  UNL1        0.1508
      5 C          59.9938   92.7959    2.5624 C.3     1  UNL1        0.0255
      6 C          61.4617   92.4911    2.6117 C.3     1  UNL1        0.0087
      7 C          62.9295   92.1863    2.6609 C.3     1  UNL1        0.0004
      8 C          63.8465   92.7418    1.6119 C.3     1  UNL1        0.0020
      9 C          63.2957   93.6022    0.5136 C.3     1  UNL1        0.0268
     10 C          61.8278   93.9070    0.4643 C.3     1  UNL1        0.1419
     11 C          61.2769   94.7675   -0.6340 C.ar    1  UNL1        0.0616
     12 C          62.1939   95.3230   -1.6830 C.ar    1  UNL1        0.1407
     13 F          63.6693   95.2250   -1.9351 F       1  UNL1       -0.2043
     14 C          61.6431   96.1834   -2.7813 C.ar    1  UNL1        0.0319
     15 C          60.1751   96.4883   -2.8306 C.ar    1  UNL1        0.0351
     16 C          59.2581   95.9327   -1.7815 C.ar    1  UNL1        0.1737
     17 F          57.7903   96.2375   -1.8308 F       1  UNL1       -0.2010
     18 C          59.8091   95.0723   -0.6832 C.ar    1  UNL1        0.1654
     19 O          58.8921   94.5167    0.3658 O.3     1  UNL1       -0.4733
     20 C          59.4429   93.6563    1.4641 C.3     1  UNL1        0.2074
     21 C          60.9108   93.3515    1.5134 C.3     1  UNL1        0.0685
     22 C          62.0125   91.6307    3.7099 C.3     1  UNL1        0.0255
     23 C          61.0955   91.0751    4.7590 C.3     1  UNL1        0.1508
     24 S          62.7448   94.4626   -0.5847 S.O2    1  UNL1        0.0093
     25 O          63.0638   95.1824   -0.4599 O.2     1  UNL1       -0.1684
     26 O          62.7803   93.3952   -1.6380 O.2     1  UNL1       -0.1684
     27 C          63.6618   95.0182   -1.6337 C.ar    1  UNL1        0.1059
     28 C          64.4004   96.2992   -1.3821 C.ar    1  UNL1        0.0192
     29 C          65.3174   96.8548   -2.4311 C.ar    1  UNL1        0.0127
     30 C          65.4958   96.1293   -3.7318 C.ar    1  UNL1        0.0578
     31 CL         66.4128   96.6849   -4.7808 Cl      1  UNL1       -0.0822
     32 C          64.7572   94.8482   -3.9835 C.ar    1  UNL1        0.0127
     33 C          63.8402   94.2926   -2.9344 C.ar    1  UNL1        0.0192
@<TRIPOS>BOND
     1     1     2    2
     2     2     3    2
     3     2     4    1
     4     4     5    1
     5     5     6    1
     6     6     7    1
     7     7     8    1
     8     8     9    1
     9     9    10    1
    10    10    24    1
    11    24    25    2
    12    24    26    2
    13    24    27    1
    14    27    28   ar
    15    28    29   ar
    16    29    30   ar
    17    30    31    1
    18    30    32   ar
    19    32    33   ar
    20    10    11    1
    21    11    12   ar
    22    12    13    1
    23    12    14   ar
    24    14    15   ar
    25    15    16   ar
    26    16    17    1
    27    16    18   ar
    28    18    19    1
    29    19    20    1
    30    21    20    1
    31     6    22    1
    32    22    23    1
    33    23     2    1
    34    21     6    1
    35    21    10    1
    36    33    27   ar
    37    18    11   ar
@<TRIPOS>MOLECULE
*****
 33 37 0 0 0
SMALL
GASTEIGER

@<TRIPOS>ATOM
      1 O          60.1768   92.1385    4.5504 O.2     1  UNL1       -0.1730
      2 S          60.1205   92.4827    3.0915 S.O2    1  UNL1       -0.0100
      3 O          58.6551   92.3559    3.3859 O.2     1  UNL1       -0.1730
      4 C          59.5554   92.7829    1.7349 C.3     1  UNL1        0.1508
      5 C          60.4751   93.0904    0.5905 C.3     1  UNL1        0.0255
      6 C          61.9600   93.0977    0.8027 C.3     1  UNL1        0.0087
      7 C          63.4448   93.1050    1.0150 C.3     1  UNL1        0.0004
      8 C          64.3645   93.4125   -0.1294 C.3     1  UNL1        0.0020
      9 C          63.7994   93.7127   -1.4860 C.3     1  UNL1        0.0268
     10 C          62.3145   93.7054   -1.6982 C.3     1  UNL1        0.1419
     11 C          61.7493   94.0056   -3.0549 C.ar    1  UNL1        0.0616
     12 C          62.6690   94.3131   -4.1993 C.ar    1  UNL1        0.1407
     13 F          64.1593   94.4050   -4.3427 F       1  UNL1       -0.2043
     14 C          62.1039   94.6132   -5.5559 C.ar    1  UNL1        0.0319
     15 C          60.6190   94.6059   -5.7682 C.ar    1  UNL1        0.0351
     16 C          59.6993   94.2985   -4.6239 C.ar    1  UNL1        0.1737
     17 F          58.2144   94.2912   -4.8361 F       1  UNL1       -0.2010
     18 C          60.2645   93.9983   -3.2672 C.ar    1  UNL1        0.1654
     19 O          59.3448   93.6908   -2.1228 O.3     1  UNL1       -0.4733
     20 C          59.9099   93.3906   -0.7662 C.3     1  UNL1        0.2074
     21 C          61.3948   93.3979   -0.5539 C.3     1  UNL1        0.0685
     22 C          62.5251   92.7975    2.1594 C.3     1  UNL1        0.0255
     23 C          61.6054   92.4901    3.3037 C.3     1  UNL1        0.1508
     24 S          63.2343   94.0129   -2.8426 S.O2    1  UNL1        0.0093
     25 O          63.4298   94.7749   -2.9713 O.2     1  UNL1       -0.1684
     26 O          63.5270   92.6702   -3.4439 O.2     1  UNL1       -0.1684
     27 C          64.1540   94.3204   -3.9870 C.ar    1  UNL1        0.1059
     28 C          64.6319   93.2162   -4.8826 C.ar    1  UNL1        0.0192
     29 C          65.5516   93.5236   -6.0270 C.ar    1  UNL1        0.0127
     30 C          65.9934   94.9353   -6.2757 C.ar    1  UNL1        0.0578
     31 CL         66.9131   95.2428   -7.4201 Cl      1  UNL1       -0.0822
     32 C          65.5155   96.0396   -5.3800 C.ar    1  UNL1        0.0127
     33 C          64.5958   95.7322   -4.2356 C.ar    1  UNL1        0.0192
@<TRIPOS>BOND
     1     1     2    2
     2     2     3    2
     3     2     4    1
     4     4     5    1
     5     5     6    1
     6     6     7    1
     7     7     8    1
     8     8     9    1
     9     9    10    1
    10    10    24    1
    11    24    25    2
    12    24    26    2
    13    24    27    1
    14    27    28   ar
    15    28    29   ar
    16    29    30   ar
    17    30    31    1
    18    30    32   ar
    19    32    33   ar
    20    10    11    1
    21    11    12   ar
    22    12    13    1
    23    12    14   ar
    24    14    15   ar
    25    15    16   ar
    26    16    17    1
    27    16    18   ar
    28    18    19    1
    29    19    20    1
    30    21    20    1
    31     6    22    1
    32    22    23    1
    33    23     2    1
    34    21     6    1
    35    21    10    1
    36    33    27   ar
    37    18    11   ar
@<TRIPOS>MOLECULE
*****
 33 37 0 0 0
SMALL
GASTEIGER

@<TRIPOS>ATOM
      1 O          64.4899   92.5394   15.8506 O.2     1  UNL1       -0.1730
      2 S          64.2574   91.1474   15.3422 S.O2    1  UNL1       -0.0100
      3 O          64.6595   90.8448   16.7553 O.2     1  UNL1       -0.1730
      4 C          64.1645   89.6504   15.3245 C.3     1  UNL1        0.1508
      5 C          63.7504   88.9394   14.0703 C.3     1  UNL1        0.0255
      6 C          63.4291   89.7254   12.8338 C.3     1  UNL1        0.0087
      7 C          63.1078   90.5114   11.5973 C.3     1  UNL1        0.0004
      8 C          62.6936   89.8004   10.3431 C.3     1  UNL1        0.0020
      9 C          62.6008   88.3034   10.3255 C.3     1  UNL1        0.0268
     10 C          62.9221   87.5174   11.5619 C.3     1  UNL1        0.1419
     11 C          62.8292   86.0203   11.5443 C.ar    1  UNL1        0.0616
     12 C          62.4151   85.3093   10.2901 C.ar    1  UNL1        0.1407
     13 F          62.0325   85.7636    8.9127 F       1  UNL1       -0.2043
     14 C          62.3222   83.8124   10.2724 C.ar    1  UNL1        0.0319
     15 C          62.6435   83.0263   11.5090 C.ar    1  UNL1        0.0351
     16 C          63.0577   83.7373   12.7631 C.ar    1  UNL1        0.1737
     17 F          63.3790   82.9513   13.9996 F       1  UNL1       -0.2010
     18 C          63.1505   85.2344   12.7808 C.ar    1  UNL1        0.1654
     19 O          63.5647   85.9454   14.0350 O.3     1  UNL1       -0.4733
     20 C          63.6575   87.4423   14.0526 C.3     1  UNL1        0.2074
     21 C          63.3362   88.2284   12.8161 C.3     1  UNL1        0.0685
     22 C          63.5219   91.2224   12.8515 C.3     1  UNL1        0.0255
     23 C          63.9361   91.9334   14.1057 C.3     1  UNL1        0.1508
     24 S          62.5079   86.8064   10.3078 S.O2    1  UNL1        0.0093
     25 O          62.9817   86.8665    9.6696 O.2     1  UNL1       -0.1684
     26 O          61.2141   86.1432   10.6768 O.2     1  UNL1       -0.1684
     27 C          62.0937   86.0954    9.0536 C.ar    1  UNL1        0.1059
     28 C          63.1140   85.3587    8.2374 C.ar    1  UNL1        0.0192
     29 C          62.6998   84.6477    6.9832 C.ar    1  UNL1        0.0127
     30 C          61.2654   84.6734    6.5452 C.ar    1  UNL1        0.0578
     31 CL         60.8513   83.9624    5.2911 Cl      1  UNL1       -0.0822
     32 C          60.2451   85.4102    7.3615 C.ar    1  UNL1        0.0127
     33 C          60.6593   86.1212    8.6157 C.ar    1  UNL1        0.0192
@<TRIPOS>BOND
     1     1     2    2
     2     2     3    2
     3     2     4    1
     4     4     5    1
     5     5     6    1
     6     6     7    1
     7     7     8    1
     8     8     9    1
     9     9    10    1
    10    10    24    1
    11    24    25    2
    12    24    26    2
    13    24    27    1
    14    27    28   ar
    15    28    29   ar
    16    29    30   ar
    17    30    31    1
    18    30    32   ar
    19    32    33   ar
    20    10    11    1
    21    11    12   ar
    22    12    13    1
    23    12    14   ar
    24    14    15   ar
    25    15    16   ar
    26    16    17    1
    27    16    18   ar
    28    18    19    1
    29    19    20    1
    30    21    20    1
    31     6    22    1
    32    22    23    1
    33    23     2    1
    34    21     6    1
    35    21    10    1
    36    33    27   ar
    37    18    11   ar
@<TRIPOS>MOLECULE
*****
 33 37 0 0 0
SMALL
GASTEIGER

@<TRIPOS>ATOM
      1 O          55.2657   91.1654   -4.4920 O.2     1  UNL1       -0.1730
      2 S          56.5657   91.9061   -4.3854 S.O2    1  UNL1       -0.0100
      3 O          56.3793   91.9199   -5.8737 O.2     1  UNL1       -0.1730
      4 C          57.8009   92.6516   -4.7957 C.3     1  UNL1        0.1508
      5 C          58.7711   93.1261   -3.7547 C.3     1  UNL1        0.0255
      6 C          58.5060   92.8551   -2.3034 C.3     1  UNL1        0.0087
      7 C          58.2409   92.5841   -0.8521 C.3     1  UNL1        0.0004
      8 C          59.2111   93.0586    0.1889 C.3     1  UNL1        0.0020
      9 C          60.4463   93.8041   -0.2214 C.3     1  UNL1        0.0268
     10 C          60.7114   94.0751   -1.6727 C.3     1  UNL1        0.1419
     11 C          61.9466   94.8207   -2.0831 C.ar    1  UNL1        0.0616
     12 C          62.9168   95.2952   -1.0421 C.ar    1  UNL1        0.1407
     13 F          62.9676   95.2026    0.4542 F       1  UNL1       -0.2043
     14 C          64.1520   96.0407   -1.4524 C.ar    1  UNL1        0.0319
     15 C          64.4171   96.3118   -2.9037 C.ar    1  UNL1        0.0351
     16 C          63.4470   95.8373   -3.9447 C.ar    1  UNL1        0.1737
     17 F          63.7120   96.1083   -5.3960 F       1  UNL1       -0.2010
     18 C          62.2117   95.0917   -3.5343 C.ar    1  UNL1        0.1654
     19 O          61.2416   94.6172   -4.5753 O.3     1  UNL1       -0.4733
     20 C          60.0063   93.8717   -4.1650 C.3     1  UNL1        0.2074
     21 C          59.7412   93.6006   -2.7137 C.3     1  UNL1        0.0685
     22 C          57.2708   92.1096   -1.8931 C.3     1  UNL1        0.0255
     23 C          56.3006   91.6351   -2.9341 C.3     1  UNL1        0.1508
     24 S          61.6815   94.5496   -0.6317 S.O2    1  UNL1        0.0093
     25 O          61.5143   95.2263   -0.2450 O.2     1  UNL1       -0.1684
     26 O          62.7627   93.5100   -0.6424 O.2     1  UNL1       -0.1684
     27 C          62.6517   95.0241    0.4093 C.ar    1  UNL1        0.1059
     28 C          63.7879   94.1415    0.8334 C.ar    1  UNL1        0.0192
     29 C          64.7580   94.6160    1.8744 C.ar    1  UNL1        0.0127
     30 C          64.5920   95.9731    2.4912 C.ar    1  UNL1        0.0578
     31 CL         65.5622   96.4476    3.5322 Cl      1  UNL1       -0.0822
     32 C          63.4557   96.8558    2.0671 C.ar    1  UNL1        0.0127
     33 C          62.4856   96.3813    1.0261 C.ar    1  UNL1        0.0192
@<TRIPOS>BOND
     1     1     2    2
     2     2     3    2
     3     2     4    1
     4     4     5    1
     5     5     6    1
     6     6     7    1
     7     7     8    1
     8     8     9    1
     9     9    10    1
    10    10    24    1
    11    24    25    2
    12    24    26    2
    13    24    27    1
    14    27    28   ar
    15    28    29   ar
    16    29    30   ar
    17    30    31    1
    18    30    32   ar
    19    32    33   ar
    20    10    11    1
    21    11    12   ar
    22    12    13    1
    23    12    14   ar
    24    14    15   ar
    25    15    16   ar
    26    16    17    1
    27    16    18   ar
    28    18    19    1
    29    19    20    1
    30    21    20    1
    31     6    22    1
    32    22    23    1
    33    23     2    1
    34    21     6    1
    35    21    10    1
    36    33    27   ar
    37    18    11   ar
