@<TRIPOS>MOLECULE
*****
 31 34 0 0 0
SMALL
GASTEIGER

@<TRIPOS>ATOM
      1 C          60.2343   87.9489    9.2750 C.ar    1  UNL1        0.1390
      2 C          60.2455   89.4285    9.0284 C.ar    1  UNL1        0.0384
      3 C          61.1171   90.3211    9.8613 C.ar    1  UNL1        0.0225
      4 C          61.9775   89.7342   10.9407 C.ar    1  UNL1        0.0889
      5 N          62.8490   90.6268   11.7735 N.ar    1  UNL1       -0.2148
      6 C          63.7094   90.0399   12.8530 C.ar    1  UNL1        0.2037
      7 N          63.6983   88.5603   13.0996 N.ar    1  UNL1       -0.2644
      8 C          62.8267   87.6677   12.2668 C.ar    1  UNL1        0.2646
      9 O          62.8155   86.1881   12.5134 O.2     1  UNL1       -0.2668
     10 C          61.9663   88.2546   11.1873 C.ar    1  UNL1        0.0770
     11 C          61.0947   87.3620   10.3544 C.ar    1  UNL1        0.0432
     12 N          64.5810   90.9325   13.6858 N.pl3   1  UNL1       -0.2781
     13 C          65.9038   91.3980   13.1533 C.3     1  UNL1        0.0937
     14 C          66.7754   92.2906   13.9862 C.3     1  UNL1        0.0229
     15 C          66.3241   92.7177   15.3515 C.3     1  UNL1        0.0190
     16 C          65.0013   92.2522   15.8839 C.3     1  UNL1        0.0710
     17 N          64.5501   92.6792   17.2491 N.3     1  UNL1       -0.3208
     18 C          64.1298   91.3595   15.0511 C.3     1  UNL1        0.1089
     19 H          65.2601   93.2787   17.6698 H       1  UNL1        0.1189
     20 H          64.4106   91.8555   17.8343 H       1  UNL1        0.1189
     21 C          59.9811   85.9926    7.5843 C.3     1  UNL1        0.2525
     22 O          59.3628   87.0563    8.4422 O.3     1  UNL1       -0.4714
     23 C          64.5586   87.9733   14.1790 C.3     1  UNL1        0.1391
     24 C          63.9341   87.4782   15.4498 C.ar    1  UNL1        0.0102
     25 C          63.3288   88.4519   16.4171 C.ar    1  UNL1       -0.0017
     26 C          62.7043   87.9568   17.6878 C.ar    1  UNL1       -0.0002
     27 C          62.6851   86.4880   17.9913 C.ar    1  UNL1        0.0007
     28 C          63.2904   85.5143   17.0241 C.ar    1  UNL1        0.0100
     29 C          63.9149   86.0094   15.7533 C.ar    1  UNL1        0.0663
     30 C          64.5202   85.0356   14.7861 C.1     1  UNL1        0.1002
     31 N          65.1254   84.0619   13.8189 N.1     1  UNL1       -0.1908
@<TRIPOS>BOND
     1    21    22    1
     2    22     1    1
     3     1     2   ar
     4     2     3   ar
     5     3     4   ar
     6     4     5   ar
     7     5     6   ar
     8     6    12    1
     9    12    13    1
    10    13    14    1
    11    14    15    1
    12    15    16    1
    13    16    17    1
    14    16    18    1
    15     6     7   ar
    16     7    23    1
    17    23    24    1
    18    24    25   ar
    19    25    26   ar
    20    26    27   ar
    21    27    28   ar
    22    28    29   ar
    23    29    30    1
    24    30    31    3
    25     7     8   ar
    26     8     9    2
    27     8    10   ar
    28    10    11   ar
    29    11     1   ar
    30    10     4   ar
    31    18    12    1
    32    29    24   ar
    33    17    19    1
    34    17    20    1
@<TRIPOS>MOLECULE
*****
 31 34 0 0 0
SMALL
GASTEIGER

@<TRIPOS>ATOM
      1 C          66.2581   93.7262   10.9260 C.ar    1  UNL1        0.1390
      2 C          67.2045   93.5221   12.0716 C.ar    1  UNL1        0.0384
      3 C          66.9141   92.4765   13.1073 C.ar    1  UNL1        0.0225
      4 C          65.6773   91.6351   12.9973 C.ar    1  UNL1        0.0889
      5 N          65.3869   90.5896   14.0329 N.ar    1  UNL1       -0.2148
      6 C          64.1501   89.7482   13.9230 C.ar    1  UNL1        0.2037
      7 N          63.2035   89.9522   12.7773 N.ar    1  UNL1       -0.2644
      8 C          63.4939   90.9978   11.7417 C.ar    1  UNL1        0.2646
      9 O          62.5474   91.2019   10.5960 O.2     1  UNL1       -0.2668
     10 C          64.7308   91.8392   11.8517 C.ar    1  UNL1        0.0770
     11 C          65.0212   92.8848   10.8160 C.ar    1  UNL1        0.0432
     12 N          63.8597   88.7026   14.9586 N.pl3   1  UNL1       -0.2781
     13 C          63.1433   89.0772   16.2222 C.3     1  UNL1        0.0937
     14 C          62.8529   88.0317   17.2578 C.3     1  UNL1        0.0229
     15 C          63.2789   86.6116   17.0299 C.3     1  UNL1        0.0190
     16 C          63.9953   86.2371   15.7664 C.3     1  UNL1        0.0710
     17 N          64.4213   84.8170   15.5385 N.3     1  UNL1       -0.3208
     18 C          64.2857   87.2826   14.7307 C.3     1  UNL1        0.1089
     19 H          64.1452   84.2468   16.3379 H       1  UNL1        0.1189
     20 H          65.4346   84.7796   15.4279 H       1  UNL1        0.1189
     21 C          67.6838   94.5802    8.9291 C.3     1  UNL1        0.2525
     22 O          66.5484   94.7717    9.8904 O.3     1  UNL1       -0.4714
     23 C          61.9666   89.1108   12.6673 C.3     1  UNL1        0.1391
     24 C          61.6396   88.4235   11.3747 C.ar    1  UNL1        0.0102
     25 C          62.4753   87.2691   10.9068 C.ar    1  UNL1       -0.0017
     26 C          62.1483   86.5817    9.6143 C.ar    1  UNL1       -0.0002
     27 C          60.9856   87.0488    8.7897 C.ar    1  UNL1        0.0007
     28 C          60.1499   88.2032    9.2577 C.ar    1  UNL1        0.0100
     29 C          60.4769   88.8905   10.5502 C.ar    1  UNL1        0.0663
     30 C          59.6412   90.0449   11.0181 C.1     1  UNL1        0.1002
     31 N          58.8055   91.1993   11.4861 N.1     1  UNL1       -0.1908
@<TRIPOS>BOND
     1    21    22    1
     2    22     1    1
     3     1     2   ar
     4     2     3   ar
     5     3     4   ar
     6     4     5   ar
     7     5     6   ar
     8     6    12    1
     9    12    13    1
    10    13    14    1
    11    14    15    1
    12    15    16    1
    13    16    17    1
    14    16    18    1
    15     6     7   ar
    16     7    23    1
    17    23    24    1
    18    24    25   ar
    19    25    26   ar
    20    26    27   ar
    21    27    28   ar
    22    28    29   ar
    23    29    30    1
    24    30    31    3
    25     7     8   ar
    26     8     9    2
    27     8    10   ar
    28    10    11   ar
    29    11     1   ar
    30    10     4   ar
    31    18    12    1
    32    29    24   ar
    33    17    19    1
    34    17    20    1
@<TRIPOS>MOLECULE
*****
 31 34 0 0 0
SMALL
GASTEIGER

@<TRIPOS>ATOM
      1 C          64.5067   91.2224   13.2497 C.ar    1  UNL1        0.1390
      2 C          65.1819   90.5066   14.3818 C.ar    1  UNL1        0.0384
      3 C          64.9510   89.0385   14.5851 C.ar    1  UNL1        0.0225
      4 C          64.0448   88.2862   13.6563 C.ar    1  UNL1        0.0889
      5 N          63.8138   86.8181   13.8596 N.ar    1  UNL1       -0.2148
      6 C          62.9076   86.0657   12.9308 C.ar    1  UNL1        0.2037
      7 N          62.2322   86.7815   11.7987 N.ar    1  UNL1       -0.2644
      8 C          62.4632   88.2496   11.5954 C.ar    1  UNL1        0.2646
      9 O          61.7879   88.9653   10.4633 O.2     1  UNL1       -0.2668
     10 C          63.3695   89.0019   12.5242 C.ar    1  UNL1        0.0770
     11 C          63.6004   90.4700   12.3209 C.ar    1  UNL1        0.0432
     12 N          62.6766   84.5976   13.1341 N.pl3   1  UNL1       -0.2781
     13 C          62.1308   84.0979   14.4390 C.3     1  UNL1        0.0937
     14 C          61.8999   82.6298   14.6423 C.3     1  UNL1        0.0229
     15 C          62.2147   81.6614   13.5408 C.3     1  UNL1        0.0190
     16 C          62.7605   82.1612   12.2360 C.3     1  UNL1        0.0710
     17 N          63.0753   81.1928   11.1346 N.3     1  UNL1       -0.3208
     18 C          62.9914   83.6293   12.0327 C.3     1  UNL1        0.1089
     19 H          62.8591   80.2450   11.4432 H       1  UNL1        0.1189
     20 H          64.0657   81.2562   10.8990 H       1  UNL1        0.1189
     21 C          66.0032   93.1679   12.3981 C.3     1  UNL1        0.2525
     22 O          64.7376   92.6905   13.0464 O.3     1  UNL1       -0.4714
     23 C          61.3260   86.0291   10.8699 C.3     1  UNL1        0.1391
     24 C          61.8274   85.5882    9.5266 C.ar    1  UNL1        0.0102
     25 C          63.1299   84.8524    9.4168 C.ar    1  UNL1       -0.0017
     26 C          63.6312   84.4115    8.0736 C.ar    1  UNL1       -0.0002
     27 C          62.8301   84.7063    6.8403 C.ar    1  UNL1        0.0007
     28 C          61.5275   85.4420    6.9501 C.ar    1  UNL1        0.0100
     29 C          61.0262   85.8830    8.2933 C.ar    1  UNL1        0.0663
     30 C          59.7236   86.6187    8.4031 C.1     1  UNL1        0.1002
     31 N          58.4211   87.3545    8.5130 N.1     1  UNL1       -0.1908
@<TRIPOS>BOND
     1    21    22    1
     2    22     1    1
     3     1     2   ar
     4     2     3   ar
     5     3     4   ar
     6     4     5   ar
     7     5     6   ar
     8     6    12    1
     9    12    13    1
    10    13    14    1
    11    14    15    1
    12    15    16    1
    13    16    17    1
    14    16    18    1
    15     6     7   ar
    16     7    23    1
    17    23    24    1
    18    24    25   ar
    19    25    26   ar
    20    26    27   ar
    21    27    28   ar
    22    28    29   ar
    23    29    30    1
    24    30    31    3
    25     7     8   ar
    26     8     9    2
    27     8    10   ar
    28    10    11   ar
    29    11     1   ar
    30    10     4   ar
    31    18    12    1
    32    29    24   ar
    33    17    19    1
    34    17    20    1
@<TRIPOS>MOLECULE
*****
 31 34 0 0 0
SMALL
GASTEIGER

@<TRIPOS>ATOM
      1 C          59.3760   88.6115    7.3306 C.ar    1  UNL1        0.1390
      2 C          59.6906   87.1476    7.2423 C.ar    1  UNL1        0.0384
      3 C          60.5189   86.4928    8.3078 C.ar    1  UNL1        0.0225
      4 C          61.0326   87.3020    9.4616 C.ar    1  UNL1        0.0889
      5 N          61.8610   86.6473   10.5270 N.ar    1  UNL1       -0.2148
      6 C          62.3747   87.4565   11.6808 C.ar    1  UNL1        0.2037
      7 N          62.0601   88.9206   11.7691 N.ar    1  UNL1       -0.2644
      8 C          61.2318   89.5753   10.7037 C.ar    1  UNL1        0.2646
      9 O          60.9171   91.0392   10.7920 O.2     1  UNL1       -0.2668
     10 C          60.7180   88.7660    9.5499 C.ar    1  UNL1        0.0770
     11 C          59.8897   89.4207    8.4844 C.ar    1  UNL1        0.0432
     12 N          63.2030   86.8018   12.7463 N.pl3   1  UNL1       -0.2781
     13 C          63.9278   87.6425   13.7553 C.3     1  UNL1        0.0937
     14 C          64.7561   86.9878   14.8207 C.3     1  UNL1        0.0229
     15 C          64.8597   85.4924   14.8772 C.3     1  UNL1        0.0190
     16 C          64.1349   84.6518   13.8682 C.3     1  UNL1        0.0710
     17 N          64.2384   83.1564   13.9247 N.3     1  UNL1       -0.3208
     18 C          63.3066   85.3065   12.8028 C.3     1  UNL1        0.1089
     19 H          64.8368   82.8863   14.7054 H       1  UNL1        0.1189
     20 H          64.6396   82.8102   13.0532 H       1  UNL1        0.1189
     21 C          59.0398   90.5137    5.5933 C.3     1  UNL1        0.2525
     22 O          58.5477   89.2662    6.2652 O.3     1  UNL1       -0.4714
     23 C          62.5738   89.7298   12.9229 C.3     1  UNL1        0.1391
     24 C          63.6753   90.7253   12.7093 C.ar    1  UNL1        0.0102
     25 C          64.0922   91.0953   11.3167 C.ar    1  UNL1       -0.0017
     26 C          65.1937   92.0908   11.1030 C.ar    1  UNL1       -0.0002
     27 C          65.8783   92.7163   12.2820 C.ar    1  UNL1        0.0007
     28 C          65.4615   92.3463   13.6746 C.ar    1  UNL1        0.0100
     29 C          64.3600   91.3508   13.8883 C.ar    1  UNL1        0.0663
     30 C          63.9432   90.9808   15.2809 C.1     1  UNL1        0.1002
     31 N          63.5263   90.6108   16.6735 N.1     1  UNL1       -0.1908
@<TRIPOS>BOND
     1    21    22    1
     2    22     1    1
     3     1     2   ar
     4     2     3   ar
     5     3     4   ar
     6     4     5   ar
     7     5     6   ar
     8     6    12    1
     9    12    13    1
    10    13    14    1
    11    14    15    1
    12    15    16    1
    13    16    17    1
    14    16    18    1
    15     6     7   ar
    16     7    23    1
    17    23    24    1
    18    24    25   ar
    19    25    26   ar
    20    26    27   ar
    21    27    28   ar
    22    28    29   ar
    23    29    30    1
    24    30    31    3
    25     7     8   ar
    26     8     9    2
    27     8    10   ar
    28    10    11   ar
    29    11     1   ar
    30    10     4   ar
    31    18    12    1
    32    29    24   ar
    33    17    19    1
    34    17    20    1
@<TRIPOS>MOLECULE
*****
 31 34 0 0 0
SMALL
GASTEIGER

@<TRIPOS>ATOM
      1 C          63.0060   82.3329   14.3212 C.ar    1  UNL1        0.1390
      2 C          63.6148   82.9929   15.5227 C.ar    1  UNL1        0.0384
      3 C          63.9009   84.4653   15.5054 C.ar    1  UNL1        0.0225
      4 C          63.5781   85.2777   14.2864 C.ar    1  UNL1        0.0889
      5 N          63.8642   86.7500   14.2691 N.ar    1  UNL1       -0.2148
      6 C          63.5415   87.5624   13.0502 C.ar    1  UNL1        0.2037
      7 N          62.9326   86.9025   11.8485 N.ar    1  UNL1       -0.2644
      8 C          62.6466   85.4301   11.8659 C.ar    1  UNL1        0.2646
      9 O          62.0377   84.7702   10.6644 O.2     1  UNL1       -0.2668
     10 C          62.9693   84.6177   13.0849 C.ar    1  UNL1        0.0770
     11 C          62.6832   83.1453   13.1023 C.ar    1  UNL1        0.0432
     12 N          63.8276   89.0348   13.0328 N.pl3   1  UNL1       -0.2781
     13 C          63.3372   89.8807   11.8952 C.3     1  UNL1        0.0937
     14 C          63.6233   91.3531   11.8779 C.3     1  UNL1        0.0229
     15 C          64.3997   91.9795   12.9981 C.3     1  UNL1        0.0190
     16 C          64.8900   91.1336   14.1356 C.3     1  UNL1        0.0710
     17 N          65.6664   91.7600   15.2557 N.3     1  UNL1       -0.3208
     18 C          64.6040   89.6612   14.1529 C.3     1  UNL1        0.1089
     19 H          65.7668   92.7601   15.0821 H       1  UNL1        0.1189
     20 H          66.5898   91.3303   15.3114 H       1  UNL1        0.1189
     21 C          62.3923   80.1451   13.0616 C.3     1  UNL1        0.2525
     22 O          62.7199   80.8606   14.3385 O.3     1  UNL1       -0.4714
     23 C          62.6099   87.7149   10.6296 C.3     1  UNL1        0.1391
     24 C          61.5487   87.2491    9.6772 C.ar    1  UNL1        0.0102
     25 C          61.9219   86.4129    8.4892 C.ar    1  UNL1       -0.0017
     26 C          60.8609   85.9471    7.5367 C.ar    1  UNL1       -0.0002
     27 C          59.4266   86.3176    7.7723 C.ar    1  UNL1        0.0007
     28 C          59.0534   87.1539    8.9604 C.ar    1  UNL1        0.0100
     29 C          60.1145   87.6196    9.9128 C.ar    1  UNL1        0.0663
     30 C          59.7413   88.4559   11.1008 C.1     1  UNL1        0.1002
     31 N          59.3681   89.2922   12.2888 N.1     1  UNL1       -0.1908
@<TRIPOS>BOND
     1    21    22    1
     2    22     1    1
     3     1     2   ar
     4     2     3   ar
     5     3     4   ar
     6     4     5   ar
     7     5     6   ar
     8     6    12    1
     9    12    13    1
    10    13    14    1
    11    14    15    1
    12    15    16    1
    13    16    17    1
    14    16    18    1
    15     6     7   ar
    16     7    23    1
    17    23    24    1
    18    24    25   ar
    19    25    26   ar
    20    26    27   ar
    21    27    28   ar
    22    28    29   ar
    23    29    30    1
    24    30    31    3
    25     7     8   ar
    26     8     9    2
    27     8    10   ar
    28    10    11   ar
    29    11     1   ar
    30    10     4   ar
    31    18    12    1
    32    29    24   ar
    33    17    19    1
    34    17    20    1
@<TRIPOS>MOLECULE
*****
 31 34 0 0 0
SMALL
GASTEIGER

@<TRIPOS>ATOM
      1 C          64.2086   90.6637   13.3771 C.ar    1  UNL1        0.1390
      2 C          64.9798   90.0846   14.5259 C.ar    1  UNL1        0.0384
      3 C          64.9391   88.6083   14.7885 C.ar    1  UNL1        0.0225
      4 C          64.1271   87.7111   13.9022 C.ar    1  UNL1        0.0889
      5 N          64.0863   86.2348   14.1647 N.ar    1  UNL1       -0.2148
      6 C          63.2743   85.3376   13.2785 C.ar    1  UNL1        0.2037
      7 N          62.5030   85.9166   12.1296 N.ar    1  UNL1       -0.2644
      8 C          62.5437   87.3929   11.8670 C.ar    1  UNL1        0.2646
      9 O          61.7725   87.9719   10.7182 O.2     1  UNL1       -0.2668
     10 C          63.3558   88.2901   12.7534 C.ar    1  UNL1        0.0770
     11 C          63.3966   89.7664   12.4909 C.ar    1  UNL1        0.0432
     12 N          63.2336   83.8613   13.5410 N.pl3   1  UNL1       -0.2781
     13 C          64.4955   83.0529   13.4764 C.3     1  UNL1        0.0937
     14 C          64.4548   81.5766   13.7390 C.3     1  UNL1        0.0229
     15 C          63.1521   80.9087   14.0661 C.3     1  UNL1        0.0190
     16 C          61.8902   81.7171   14.1307 C.3     1  UNL1        0.0710
     17 N          60.5876   81.0491   14.4578 N.3     1  UNL1       -0.3208
     18 C          61.9310   83.1933   13.8681 C.3     1  UNL1        0.1089
     19 H          60.7444   80.0521   14.6052 H       1  UNL1        0.1189
     20 H          59.9349   81.1801   13.6850 H       1  UNL1        0.1189
     21 C          65.3577   92.7248   12.2905 C.3     1  UNL1        0.2525
     22 O          64.2493   92.1399   13.1146 O.3     1  UNL1       -0.4714
     23 C          61.6910   85.0193   11.2433 C.3     1  UNL1        0.1391
     24 C          61.7623   85.1731    9.7529 C.ar    1  UNL1        0.0102
     25 C          60.7388   86.0016    9.0345 C.ar    1  UNL1       -0.0017
     26 C          60.8101   86.1554    7.5442 C.ar    1  UNL1       -0.0002
     27 C          61.9049   85.4807    6.7722 C.ar    1  UNL1        0.0007
     28 C          62.9285   84.6522    7.4905 C.ar    1  UNL1        0.0100
     29 C          62.8572   84.4984    8.9808 C.ar    1  UNL1        0.0663
     30 C          63.8807   83.6699    9.6991 C.1     1  UNL1        0.1002
     31 N          64.9043   82.8415   10.4175 N.1     1  UNL1       -0.1908
@<TRIPOS>BOND
     1    21    22    1
     2    22     1    1
     3     1     2   ar
     4     2     3   ar
     5     3     4   ar
     6     4     5   ar
     7     5     6   ar
     8     6    12    1
     9    12    13    1
    10    13    14    1
    11    14    15    1
    12    15    16    1
    13    16    17    1
    14    16    18    1
    15     6     7   ar
    16     7    23    1
    17    23    24    1
    18    24    25   ar
    19    25    26   ar
    20    26    27   ar
    21    27    28   ar
    22    28    29   ar
    23    29    30    1
    24    30    31    3
    25     7     8   ar
    26     8     9    2
    27     8    10   ar
    28    10    11   ar
    29    11     1   ar
    30    10     4   ar
    31    18    12    1
    32    29    24   ar
    33    17    19    1
    34    17    20    1
@<TRIPOS>MOLECULE
*****
 31 34 0 0 0
SMALL
GASTEIGER

@<TRIPOS>ATOM
      1 C          60.2531   88.7644    8.5474 C.ar    1  UNL1        0.1390
      2 C          59.7601   87.4358    8.0559 C.ar    1  UNL1        0.0384
      3 C          60.2264   86.1720    8.7157 C.ar    1  UNL1        0.0225
      4 C          61.1857   86.2368    9.8669 C.ar    1  UNL1        0.0889
      5 N          61.6521   84.9729   10.5266 N.ar    1  UNL1       -0.2148
      6 C          62.6114   85.0377   11.6779 C.ar    1  UNL1        0.2037
      7 N          63.1045   86.3664   12.1695 N.ar    1  UNL1       -0.2644
      8 C          62.6381   87.6302   11.5097 C.ar    1  UNL1        0.2646
      9 O          63.1311   88.9589   12.0012 O.2     1  UNL1       -0.2668
     10 C          61.6787   87.5654   10.3584 C.ar    1  UNL1        0.0770
     11 C          61.2124   88.8292    9.6987 C.ar    1  UNL1        0.0432
     12 N          63.0777   83.7739   12.3376 N.pl3   1  UNL1       -0.2781
     13 C          64.4523   83.2437   12.0555 C.3     1  UNL1        0.0937
     14 C          64.9187   81.9799   12.7153 C.3     1  UNL1        0.0229
     15 C          64.0104   81.2462   13.6571 C.3     1  UNL1        0.0190
     16 C          62.6359   81.7764   13.9391 C.3     1  UNL1        0.0710
     17 N          61.7277   81.0427   14.8808 N.3     1  UNL1       -0.3208
     18 C          62.1696   83.0402   13.2794 C.3     1  UNL1        0.1089
     19 H          62.2033   80.2124   15.2341 H       1  UNL1        0.1189
     20 H          60.8793   80.7647   14.3876 H       1  UNL1        0.1189
     21 C          59.3769   90.0141    6.4449 C.3     1  UNL1        0.2525
     22 O          59.7867   90.0283    7.8877 O.3     1  UNL1       -0.4714
     23 C          64.0638   86.4312   13.3207 C.3     1  UNL1        0.1391
     24 C          63.5449   86.5128   14.7258 C.ar    1  UNL1        0.0102
     25 C          62.9032   85.3140   15.3591 C.ar    1  UNL1       -0.0017
     26 C          62.3843   85.3955   16.7641 C.ar    1  UNL1       -0.0002
     27 C          62.5070   86.6759   17.5357 C.ar    1  UNL1        0.0007
     28 C          63.1487   87.8747   16.9024 C.ar    1  UNL1        0.0100
     29 C          63.6676   87.7932   15.4974 C.ar    1  UNL1        0.0663
     30 C          64.3093   88.9920   14.8641 C.1     1  UNL1        0.1002
     31 N          64.9509   90.1908   14.2308 N.1     1  UNL1       -0.1908
@<TRIPOS>BOND
     1    21    22    1
     2    22     1    1
     3     1     2   ar
     4     2     3   ar
     5     3     4   ar
     6     4     5   ar
     7     5     6   ar
     8     6    12    1
     9    12    13    1
    10    13    14    1
    11    14    15    1
    12    15    16    1
    13    16    17    1
    14    16    18    1
    15     6     7   ar
    16     7    23    1
    17    23    24    1
    18    24    25   ar
    19    25    26   ar
    20    26    27   ar
    21    27    28   ar
    22    28    29   ar
    23    29    30    1
    24    30    31    3
    25     7     8   ar
    26     8     9    2
    27     8    10   ar
    28    10    11   ar
    29    11     1   ar
    30    10     4   ar
    31    18    12    1
    32    29    24   ar
    33    17    19    1
    34    17    20    1
@<TRIPOS>MOLECULE
*****
 31 34 0 0 0
SMALL
GASTEIGER

@<TRIPOS>ATOM
      1 C          63.2066   82.2772   14.2626 C.ar    1  UNL1        0.1390
      2 C          63.8217   83.1788   15.2915 C.ar    1  UNL1        0.0384
      3 C          63.9393   84.6503   15.0252 C.ar    1  UNL1        0.0225
      4 C          63.4419   85.2201   13.7299 C.ar    1  UNL1        0.0889
      5 N          63.5596   86.6916   13.4635 N.ar    1  UNL1       -0.2148
      6 C          63.0622   87.2614   12.1682 C.ar    1  UNL1        0.2037
      7 N          62.4470   86.3598   11.1392 N.ar    1  UNL1       -0.2644
      8 C          62.3293   84.8883   11.4056 C.ar    1  UNL1        0.2646
      9 O          61.7142   83.9867   10.3767 O.2     1  UNL1       -0.2668
     10 C          62.8268   84.3185   12.7010 C.ar    1  UNL1        0.0770
     11 C          62.7091   82.8470   12.9673 C.ar    1  UNL1        0.0432
     12 N          63.1799   88.7329   11.9019 N.pl3   1  UNL1       -0.2781
     13 C          62.6478   89.3084   10.6229 C.3     1  UNL1        0.0937
     14 C          62.7655   90.7799   10.3565 C.3     1  UNL1        0.0229
     15 C          63.4152   91.6758   11.3691 C.3     1  UNL1        0.0190
     16 C          63.9472   91.1002   12.6481 C.3     1  UNL1        0.0710
     17 N          64.5968   91.9961   13.6606 N.3     1  UNL1       -0.3208
     18 C          63.8295   89.6288   12.9144 C.3     1  UNL1        0.1089
     19 H          64.5907   92.9569   13.3181 H       1  UNL1        0.1189
     20 H          65.5596   91.6954   13.8126 H       1  UNL1        0.1189
     21 C          62.4020   79.9163   13.5355 C.3     1  UNL1        0.2525
     22 O          63.0889   80.8057   14.5290 O.3     1  UNL1       -0.4714
     23 C          61.9496   86.9297    9.8440 C.3     1  UNL1        0.1391
     24 C          61.9861   86.0985    8.5957 C.ar    1  UNL1        0.0102
     25 C          63.2341   85.3520    8.2280 C.ar    1  UNL1       -0.0017
     26 C          63.2706   84.5209    6.9799 C.ar    1  UNL1       -0.0002
     27 C          62.0591   84.4364    6.0995 C.ar    1  UNL1        0.0007
     28 C          60.8111   85.1829    6.4672 C.ar    1  UNL1        0.0100
     29 C          60.7746   86.0140    7.7153 C.ar    1  UNL1        0.0663
     30 C          59.5266   86.7605    8.0830 C.1     1  UNL1        0.1002
     31 N          58.2787   87.5071    8.4508 N.1     1  UNL1       -0.1908
@<TRIPOS>BOND
     1    21    22    1
     2    22     1    1
     3     1     2   ar
     4     2     3   ar
     5     3     4   ar
     6     4     5   ar
     7     5     6   ar
     8     6    12    1
     9    12    13    1
    10    13    14    1
    11    14    15    1
    12    15    16    1
    13    16    17    1
    14    16    18    1
    15     6     7   ar
    16     7    23    1
    17    23    24    1
    18    24    25   ar
    19    25    26   ar
    20    26    27   ar
    21    27    28   ar
    22    28    29   ar
    23    29    30    1
    24    30    31    3
    25     7     8   ar
    26     8     9    2
    27     8    10   ar
    28    10    11   ar
    29    11     1   ar
    30    10     4   ar
    31    18    12    1
    32    29    24   ar
    33    17    19    1
    34    17    20    1
@<TRIPOS>MOLECULE
*****
 31 34 0 0 0
SMALL
GASTEIGER

@<TRIPOS>ATOM
      1 C          60.2305   88.9447    8.5957 C.ar    1  UNL1        0.1390
      2 C          59.6960   87.5526    8.4339 C.ar    1  UNL1        0.0384
      3 C          60.1815   86.4537    9.3321 C.ar    1  UNL1        0.0225
      4 C          61.2015   86.7470   10.3920 C.ar    1  UNL1        0.0889
      5 N          61.6870   85.6481   11.2902 N.ar    1  UNL1       -0.2148
      6 C          62.7070   85.9413   12.3502 C.ar    1  UNL1        0.2037
      7 N          63.2416   87.3335   12.5120 N.ar    1  UNL1       -0.2644
      8 C          62.7561   88.4324   11.6139 C.ar    1  UNL1        0.2646
      9 O          63.2905   89.8245   11.7756 O.2     1  UNL1       -0.2668
     10 C          61.7360   88.1391   10.5538 C.ar    1  UNL1        0.0770
     11 C          61.2505   89.2380    9.6557 C.ar    1  UNL1        0.0432
     12 N          63.1925   84.8424   13.2484 N.pl3   1  UNL1       -0.2781
     13 C          64.5588   84.9240   13.8622 C.3     1  UNL1        0.0937
     14 C          65.0443   83.8251   14.7604 C.3     1  UNL1        0.0229
     15 C          64.1635   82.6446   15.0447 C.3     1  UNL1        0.0190
     16 C          62.7973   82.5630   14.4309 C.3     1  UNL1        0.0710
     17 N          61.9166   81.3826   14.7152 N.3     1  UNL1       -0.3208
     18 C          62.3118   83.6619   13.5327 C.3     1  UNL1        0.1089
     19 H          62.4024   80.7385   15.3393 H       1  UNL1        0.1189
     20 H          61.6939   80.9062   13.8412 H       1  UNL1        0.1189
     21 C          59.3632   89.7395    6.2792 C.3     1  UNL1        0.2525
     22 O          59.7450   90.0436    7.6975 O.3     1  UNL1       -0.4714
     23 C          64.2615   87.6267   13.5720 C.3     1  UNL1        0.1391
     24 C          64.0588   88.7802   14.5093 C.ar    1  UNL1        0.0102
     25 C          64.4752   90.1617   14.0995 C.ar    1  UNL1       -0.0017
     26 C          64.2725   91.3152   15.0367 C.ar    1  UNL1       -0.0002
     27 C          63.6535   91.0871   16.3838 C.ar    1  UNL1        0.0007
     28 C          63.2372   89.7055   16.7937 C.ar    1  UNL1        0.0100
     29 C          63.4398   88.5521   15.8564 C.ar    1  UNL1        0.0663
     30 C          63.0235   87.1705   16.2663 C.1     1  UNL1        0.1002
     31 N          62.6071   85.7890   16.6761 N.1     1  UNL1       -0.1908
@<TRIPOS>BOND
     1    21    22    1
     2    22     1    1
     3     1     2   ar
     4     2     3   ar
     5     3     4   ar
     6     4     5   ar
     7     5     6   ar
     8     6    12    1
     9    12    13    1
    10    13    14    1
    11    14    15    1
    12    15    16    1
    13    16    17    1
    14    16    18    1
    15     6     7   ar
    16     7    23    1
    17    23    24    1
    18    24    25   ar
    19    25    26   ar
    20    26    27   ar
    21    27    28   ar
    22    28    29   ar
    23    29    30    1
    24    30    31    3
    25     7     8   ar
    26     8     9    2
    27     8    10   ar
    28    10    11   ar
    29    11     1   ar
    30    10     4   ar
    31    18    12    1
    32    29    24   ar
    33    17    19    1
    34    17    20    1
