@<TRIPOS>MOLECULE
*****
 47 51 0 0 0
SMALL
GASTEIGER

@<TRIPOS>ATOM
      1 C          60.6881   88.4057    9.3341 C.3     1  UNL1        0.0337
      2 C          59.7326   89.0864    8.3994 C.3     1  UNL1        0.0220
      3 C          58.8832   88.2708    7.4701 C.3     1  UNL1        0.0689
      4 N          58.9894   86.7746    7.4755 N.3     1  UNL1       -0.2970
      5 C          59.9449   86.0939    8.4102 C.3     1  UNL1        0.0780
      6 C          60.7943   86.9094    9.3395 C.3     1  UNL1        0.0964
      7 H          59.2521   86.4947    6.5305 H       1  UNL1        0.1233
      8 C          63.2360   90.8523   12.1219 C.ar    1  UNL1        0.1387
      9 C          63.5081   90.8702   10.6469 C.ar    1  UNL1        0.0366
     10 C          62.6587   90.0547    9.7176 C.ar    1  UNL1       -0.0012
     11 C          61.5374   89.2212   10.2633 C.ar    1  UNL1       -0.0217
     12 C          61.2653   89.2033   11.7384 C.ar    1  UNL1       -0.0012
     13 C          62.1146   90.0188   12.6677 C.ar    1  UNL1        0.0366
     14 O          64.0854   91.6678   13.0511 O.3     1  UNL1       -0.4714
     15 C          65.4724   92.0677   12.6432 C.3     1  UNL1        0.2525
     16 C          65.9097   93.4966   12.7729 C.3     1  UNL1        0.2525
     17 O          67.0949   93.9916   11.9981 O.3     1  UNL1       -0.4697
     18 C          66.2896   96.8547    6.7872 C.3     1  UNL1        0.0311
     19 C          66.4909   96.1389    8.0899 C.ar    1  UNL1       -0.0200
     20 C          67.0525   94.7481    8.1025 C.ar    1  UNL1        0.0103
     21 C          67.2539   94.0323    9.4052 C.ar    1  UNL1        0.0921
     22 CL         67.8155   92.6415    9.4178 Cl      1  UNL1       -0.0791
     23 C          66.8936   94.7074   10.6954 C.ar    1  UNL1        0.1596
     24 C          66.3320   96.0982   10.6828 C.ar    1  UNL1        0.0921
     25 CL         65.9716   96.7732   11.9730 Cl      1  UNL1       -0.0791
     26 C          66.1306   96.8139    9.3800 C.ar    1  UNL1        0.0103
     27 C          61.7498   86.2288   10.2742 C.2     1  UNL1        0.2270
     28 O          61.7077   86.5330   11.7424 O.2     1  UNL1       -0.2748
     29 N          62.7473   85.2438    9.7406 N.am    1  UNL1       -0.2770
     30 C          62.7894   84.9396    8.2724 C.3     1  UNL1        0.0758
     31 C          62.1056   84.4682    7.0234 C.3     1  UNL1        0.0215
     32 C          63.5461   84.8839    6.9785 C.3     1  UNL1        0.0215
     33 C          63.7029   84.5631   10.6753 C.3     1  UNL1        0.1209
     34 C          63.1816   83.6669   11.7592 C.ar    1  UNL1        0.0080
     35 C          62.8918   84.2264   13.1205 C.ar    1  UNL1       -0.0047
     36 C          62.3704   83.3301   14.2044 C.ar    1  UNL1       -0.0066
     37 C          62.1389   81.8743   13.9271 C.ar    1  UNL1       -0.0021
     38 C          62.4286   81.3147   12.5659 C.ar    1  UNL1        0.0109
     39 C          62.9500   82.2110   11.4820 C.ar    1  UNL1        0.0553
     40 CL         63.2398   81.6514   10.1208 Cl      1  UNL1       -0.0825
     41 C          62.0806   83.8897   15.5656 C.3     1  UNL1        0.0958
     42 N          62.3082   85.3464   15.8417 N.3     1  UNL1       -0.2890
     43 H          61.7358   85.5855   16.6514 H       1  UNL1        0.1237
     44 C          63.6927   85.8484   16.1267 C.3     1  UNL1        0.1420
     45 C          64.5928   86.2491   14.9957 C.3     1  UNL1        0.3341
     46 F          64.1946   87.3693   14.0810 F       1  UNL1       -0.1969
     47 F          65.8911   85.5296   14.7793 F       1  UNL1       -0.1969
@<TRIPOS>BOND
     1    18    19    1
     2    19    20   ar
     3    20    21   ar
     4    21    22    1
     5    21    23   ar
     6    23    17    1
     7    17    16    1
     8    16    15    1
     9    15    14    1
    10    14     8    1
    11     8     9   ar
    12     9    10   ar
    13    10    11   ar
    14     1    11    1
    15     1     2    1
    16     2     3    1
    17     3     4    1
    18     4     5    1
    19     5     6    1
    20     6    27    1
    21    27    28    2
    22    27    29   am
    23    29    33    1
    24    33    34    1
    25    34    35   ar
    26    35    36   ar
    27    36    41    1
    28    41    42    1
    29    42    44    1
    30    44    45    1
    31    45    46    1
    32    45    47    1
    33    36    37   ar
    34    37    38   ar
    35    38    39   ar
    36    39    40    1
    37    29    30    1
    38    30    31    1
    39    31    32    1
    40    11    12   ar
    41    12    13   ar
    42    23    24   ar
    43    24    25    1
    44    24    26   ar
    45    26    19   ar
    46    13     8   ar
    47     6     1    1
    48    39    34   ar
    49    32    30    1
    50     4     7    1
    51    42    43    1
@<TRIPOS>MOLECULE
*****
 47 51 0 0 0
SMALL
GASTEIGER

@<TRIPOS>ATOM
      1 C          60.9122   87.3546    8.7284 C.3     1  UNL1        0.0337
      2 C          59.9660   87.1977    7.5751 C.3     1  UNL1        0.0220
      3 C          59.1632   88.3718    7.0986 C.3     1  UNL1        0.0689
      4 N          59.3064   89.7027    7.7755 N.3     1  UNL1       -0.2970
      5 C          60.2525   89.8596    8.9288 C.3     1  UNL1        0.0780
      6 C          61.0554   88.6856    9.4053 C.3     1  UNL1        0.0964
      7 H          58.3805   89.9605    8.1170 H       1  UNL1        0.1233
      8 C          63.3208   83.8326   10.1579 C.ar    1  UNL1        0.1387
      9 C          63.5079   84.3528    8.7636 C.ar    1  UNL1        0.0366
     10 C          62.7050   85.5269    8.2871 C.ar    1  UNL1       -0.0012
     11 C          61.7150   86.1806    9.2049 C.ar    1  UNL1       -0.0217
     12 C          61.5279   85.6603   10.5994 C.ar    1  UNL1       -0.0012
     13 C          62.3308   84.4863   11.0759 C.ar    1  UNL1        0.0366
     14 O          64.1237   82.6585   10.6344 O.3     1  UNL1       -0.4714
     15 C          63.5139   81.6675   11.5810 C.3     1  UNL1        0.2525
     16 C          63.7925   81.7656   13.0517 C.3     1  UNL1        0.2525
     17 O          64.6415   82.8830   13.5813 O.3     1  UNL1       -0.4697
     18 C          62.3574   86.7687   17.5416 C.3     1  UNL1        0.0311
     19 C          62.9284   85.7973   16.5515 C.ar    1  UNL1       -0.0200
     20 C          64.3121   86.0038   16.0106 C.ar    1  UNL1        0.0103
     21 C          64.8832   85.0324   15.0206 C.ar    1  UNL1        0.0921
     22 CL         66.2670   85.2390   14.4797 Cl      1  UNL1       -0.0791
     23 C          64.0705   83.8544   14.5713 C.ar    1  UNL1        0.1596
     24 C          62.6868   83.6479   15.1122 C.ar    1  UNL1        0.0921
     25 CL         61.8740   82.4698   14.6630 Cl      1  UNL1       -0.0791
     26 C          62.1157   84.6193   16.1023 C.ar    1  UNL1        0.0103
     27 C          62.0015   88.8425   10.5587 C.2     1  UNL1        0.2270
     28 O          63.4382   88.4374   10.4107 O.2     1  UNL1       -0.2748
     29 N          61.5110   89.4044   11.8600 N.am    1  UNL1       -0.2770
     30 C          60.0743   89.8094   12.0080 C.3     1  UNL1        0.0758
     31 C          58.6787   89.5032   12.4647 C.3     1  UNL1        0.0215
     32 C          58.9815   90.8172   11.8077 C.3     1  UNL1        0.0215
     33 C          62.4571   89.5613   13.0134 C.3     1  UNL1        0.1209
     34 C          63.5840   90.5478   12.9303 C.ar    1  UNL1        0.0080
     35 C          63.8353   91.2935   11.6533 C.ar    1  UNL1       -0.0047
     36 C          64.9622   92.2800   11.5701 C.ar    1  UNL1       -0.0066
     37 C          65.8377   92.5209   12.7640 C.ar    1  UNL1       -0.0021
     38 C          65.5864   91.7752   14.0411 C.ar    1  UNL1        0.0109
     39 C          64.4596   90.7887   14.1242 C.ar    1  UNL1        0.0553
     40 CL         64.2082   90.0430   15.4012 Cl      1  UNL1       -0.0825
     41 C          65.2135   93.0257   10.2931 C.3     1  UNL1        0.0958
     42 N          66.3265   94.0284   10.2167 N.3     1  UNL1       -0.2890
     43 H          66.7175   94.1064   11.1555 H       1  UNL1        0.1237
     44 C          67.4795   93.7996    9.2850 C.3     1  UNL1        0.1420
     45 C          68.3409   92.5818    9.4427 C.3     1  UNL1        0.3341
     46 F          68.3783   91.8542   10.7538 F       1  UNL1       -0.1969
     47 F          69.1651   92.0915    8.2891 F       1  UNL1       -0.1969
@<TRIPOS>BOND
     1    18    19    1
     2    19    20   ar
     3    20    21   ar
     4    21    22    1
     5    21    23   ar
     6    23    17    1
     7    17    16    1
     8    16    15    1
     9    15    14    1
    10    14     8    1
    11     8     9   ar
    12     9    10   ar
    13    10    11   ar
    14     1    11    1
    15     1     2    1
    16     2     3    1
    17     3     4    1
    18     4     5    1
    19     5     6    1
    20     6    27    1
    21    27    28    2
    22    27    29   am
    23    29    33    1
    24    33    34    1
    25    34    35   ar
    26    35    36   ar
    27    36    41    1
    28    41    42    1
    29    42    44    1
    30    44    45    1
    31    45    46    1
    32    45    47    1
    33    36    37   ar
    34    37    38   ar
    35    38    39   ar
    36    39    40    1
    37    29    30    1
    38    30    31    1
    39    31    32    1
    40    11    12   ar
    41    12    13   ar
    42    23    24   ar
    43    24    25    1
    44    24    26   ar
    45    26    19   ar
    46    13     8   ar
    47     6     1    1
    48    39    34   ar
    49    32    30    1
    50     4     7    1
    51    42    43    1
@<TRIPOS>MOLECULE
*****
 47 51 0 0 0
SMALL
GASTEIGER

@<TRIPOS>ATOM
      1 C          60.7596   88.5430    9.4439 C.3     1  UNL1        0.0337
      2 C          59.8145   89.2387    8.5097 C.3     1  UNL1        0.0220
      3 C          58.9311   88.4358    7.6013 C.3     1  UNL1        0.0689
      4 N          58.9928   86.9373    7.6273 N.3     1  UNL1       -0.2970
      5 C          59.9379   86.2416    8.5615 C.3     1  UNL1        0.0780
      6 C          60.8213   87.0445    9.4698 C.3     1  UNL1        0.0964
      7 H          59.2366   86.6363    6.6837 H       1  UNL1        0.1233
      8 C          63.4098   90.9516   12.1688 C.ar    1  UNL1        0.1387
      9 C          62.2717   90.1580   12.7387 C.ar    1  UNL1        0.0366
     10 C          61.3883   89.3551   11.8303 C.ar    1  UNL1       -0.0012
     11 C          61.6430   89.3459   10.3522 C.ar    1  UNL1       -0.0217
     12 C          62.7812   90.1396    9.7823 C.ar    1  UNL1       -0.0012
     13 C          63.6646   90.9424   10.6906 C.ar    1  UNL1        0.0366
     14 O          64.2932   91.7545   13.0771 O.3     1  UNL1       -0.4714
     15 C          65.4361   91.0930   13.7887 C.3     1  UNL1        0.2525
     16 C          66.7798   91.7586   13.8301 C.3     1  UNL1        0.2525
     17 O          67.5364   92.0006   12.5578 O.3     1  UNL1       -0.4697
     18 C          65.9639   96.5273    8.9471 C.3     1  UNL1        0.0311
     19 C          66.3570   95.3956    9.8498 C.ar    1  UNL1       -0.0200
     20 C          66.1416   95.5074   11.3300 C.ar    1  UNL1        0.0103
     21 C          66.5347   94.3757   12.2327 C.ar    1  UNL1        0.0921
     22 CL         66.3193   94.4875   13.7130 Cl      1  UNL1       -0.0791
     23 C          67.1432   93.1323   11.6551 C.ar    1  UNL1        0.1596
     24 C          67.3586   93.0206   10.1749 C.ar    1  UNL1        0.0921
     25 CL         67.9672   91.7771    9.5973 Cl      1  UNL1       -0.0791
     26 C          66.9655   94.1522    9.2722 C.ar    1  UNL1        0.0103
     27 C          61.7665   86.3489   10.4040 C.2     1  UNL1        0.2270
     28 O          61.7336   86.6578   11.8715 O.2     1  UNL1       -0.2748
     29 N          62.7444   85.3443    9.8708 N.am    1  UNL1       -0.2770
     30 C          62.7773   85.0354    8.4033 C.3     1  UNL1        0.0758
     31 C          62.0831   84.5686    7.1583 C.3     1  UNL1        0.0215
     32 C          63.5283   84.9670    7.1067 C.3     1  UNL1        0.0215
     33 C          63.6896   84.6486   10.8050 C.3     1  UNL1        0.1209
     34 C          63.1568   83.7291   11.8635 C.ar    1  UNL1        0.0080
     35 C          62.9032   84.2467   13.2484 C.ar    1  UNL1       -0.0047
     36 C          62.3704   83.3271   14.3069 C.ar    1  UNL1       -0.0066
     37 C          62.0912   81.8899   13.9806 C.ar    1  UNL1       -0.0021
     38 C          62.3448   81.3722   12.5958 C.ar    1  UNL1        0.0109
     39 C          62.8776   82.2918   11.5373 C.ar    1  UNL1        0.0553
     40 CL         63.1313   81.7742   10.1525 Cl      1  UNL1       -0.0825
     41 C          62.1167   83.8447   15.6917 C.3     1  UNL1        0.0958
     42 N          62.1145   85.3220   15.9515 N.3     1  UNL1       -0.2890
     43 H          61.2633   85.5277   16.4744 H       1  UNL1        0.1237
     44 C          63.2483   85.9529   16.7042 C.3     1  UNL1        0.1420
     45 C          62.9769   87.0586   17.6807 C.3     1  UNL1        0.3341
     46 F          63.0996   88.4893   17.2469 F       1  UNL1       -0.1969
     47 F          62.5829   86.7338   19.0912 F       1  UNL1       -0.1969
@<TRIPOS>BOND
     1    18    19    1
     2    19    20   ar
     3    20    21   ar
     4    21    22    1
     5    21    23   ar
     6    23    17    1
     7    17    16    1
     8    16    15    1
     9    15    14    1
    10    14     8    1
    11     8     9   ar
    12     9    10   ar
    13    10    11   ar
    14     1    11    1
    15     1     2    1
    16     2     3    1
    17     3     4    1
    18     4     5    1
    19     5     6    1
    20     6    27    1
    21    27    28    2
    22    27    29   am
    23    29    33    1
    24    33    34    1
    25    34    35   ar
    26    35    36   ar
    27    36    41    1
    28    41    42    1
    29    42    44    1
    30    44    45    1
    31    45    46    1
    32    45    47    1
    33    36    37   ar
    34    37    38   ar
    35    38    39   ar
    36    39    40    1
    37    29    30    1
    38    30    31    1
    39    31    32    1
    40    11    12   ar
    41    12    13   ar
    42    23    24   ar
    43    24    25    1
    44    24    26   ar
    45    26    19   ar
    46    13     8   ar
    47     6     1    1
    48    39    34   ar
    49    32    30    1
    50     4     7    1
    51    42    43    1
@<TRIPOS>MOLECULE
*****
 47 51 0 0 0
SMALL
GASTEIGER

@<TRIPOS>ATOM
      1 C          65.5863   91.5249   14.7849 C.3     1  UNL1        0.0337
      2 C          66.7410   92.0077   15.6117 C.3     1  UNL1        0.0220
      3 C          67.5692   93.1657   15.1395 C.3     1  UNL1        0.0689
      4 N          67.2428   93.8410   13.8406 N.3     1  UNL1       -0.2970
      5 C          66.0881   93.3583   13.0137 C.3     1  UNL1        0.0780
      6 C          65.2599   92.2002   13.4858 C.3     1  UNL1        0.0964
      7 H          68.0747   93.7700   13.2546 H       1  UNL1        0.1233
      8 C          63.1016   88.0508   16.2013 C.ar    1  UNL1        0.1387
      9 C          62.9609   89.3912   16.8596 C.ar    1  UNL1        0.0366
     10 C          63.7892   90.5493   16.3875 C.ar    1  UNL1       -0.0012
     11 C          64.7581   90.3669   15.2570 C.ar    1  UNL1       -0.0217
     12 C          64.8988   89.0264   14.5987 C.ar    1  UNL1       -0.0012
     13 C          64.0706   87.8683   15.0709 C.ar    1  UNL1        0.0366
     14 O          62.2734   86.8927   16.6735 O.3     1  UNL1       -0.4714
     15 C          62.8746   85.5203   16.7447 C.3     1  UNL1        0.2525
     16 C          62.1884   84.3653   16.0775 C.3     1  UNL1        0.2525
     17 O          62.9730   83.1450   15.6967 O.3     1  UNL1       -0.4697
     18 C          64.0604   81.9603    9.9162 C.3     1  UNL1        0.0311
     19 C          63.7885   82.2565   11.3613 C.ar    1  UNL1       -0.0200
     20 C          64.6649   83.2183   12.1076 C.ar    1  UNL1        0.0103
     21 C          64.3930   83.5145   13.5527 C.ar    1  UNL1        0.0921
     22 CL         65.2695   84.4764   14.2989 Cl      1  UNL1       -0.0791
     23 C          63.2449   82.8488   14.2516 C.ar    1  UNL1        0.1596
     24 C          62.3685   81.8870   13.5054 C.ar    1  UNL1        0.0921
     25 CL         61.2203   81.2213   14.2043 Cl      1  UNL1       -0.0791
     26 C          62.6404   81.5908   12.0603 C.ar    1  UNL1        0.0103
     27 C          64.1052   91.7175   12.6590 C.2     1  UNL1        0.2270
     28 O          62.8872   91.1536   13.3286 O.2     1  UNL1       -0.2748
     29 N          64.1686   91.7986   11.1626 N.am    1  UNL1       -0.2770
     30 C          65.3867   92.3624   10.4930 C.3     1  UNL1        0.0758
     31 C          66.0735   93.4912    9.7829 C.3     1  UNL1        0.0215
     32 C          66.8096   92.2104   10.0432 C.3     1  UNL1        0.0215
     33 C          63.0140   91.3158   10.3356 C.3     1  UNL1        0.1209
     34 C          62.2502   90.0947   10.7546 C.ar    1  UNL1        0.0080
     35 C          62.9172   88.7512   10.7401 C.ar    1  UNL1       -0.0047
     36 C          62.1534   87.5301   11.1591 C.ar    1  UNL1       -0.0066
     37 C          60.7226   87.6524   11.5924 C.ar    1  UNL1       -0.0021
     38 C          60.0556   88.9959   11.6068 C.ar    1  UNL1        0.0109
     39 C          60.8193   90.2170   11.1879 C.ar    1  UNL1        0.0553
     40 CL         60.1523   91.5604   11.2023 Cl      1  UNL1       -0.0825
     41 C          62.8204   86.1866   11.1446 C.3     1  UNL1        0.0958
     42 N          62.4874   85.1954   10.0692 N.3     1  UNL1       -0.2890
     43 H          61.5526   84.8421   10.2736 H       1  UNL1        0.1237
     44 C          62.4842   85.6218    8.6311 C.3     1  UNL1        0.1420
     45 C          61.2069   86.0687    7.9841 C.3     1  UNL1        0.3341
     46 F          60.6438   87.4242    8.2934 F       1  UNL1       -0.1969
     47 F          60.4926   85.1602    7.0279 F       1  UNL1       -0.1969
@<TRIPOS>BOND
     1    18    19    1
     2    19    20   ar
     3    20    21   ar
     4    21    22    1
     5    21    23   ar
     6    23    17    1
     7    17    16    1
     8    16    15    1
     9    15    14    1
    10    14     8    1
    11     8     9   ar
    12     9    10   ar
    13    10    11   ar
    14     1    11    1
    15     1     2    1
    16     2     3    1
    17     3     4    1
    18     4     5    1
    19     5     6    1
    20     6    27    1
    21    27    28    2
    22    27    29   am
    23    29    33    1
    24    33    34    1
    25    34    35   ar
    26    35    36   ar
    27    36    41    1
    28    41    42    1
    29    42    44    1
    30    44    45    1
    31    45    46    1
    32    45    47    1
    33    36    37   ar
    34    37    38   ar
    35    38    39   ar
    36    39    40    1
    37    29    30    1
    38    30    31    1
    39    31    32    1
    40    11    12   ar
    41    12    13   ar
    42    23    24   ar
    43    24    25    1
    44    24    26   ar
    45    26    19   ar
    46    13     8   ar
    47     6     1    1
    48    39    34   ar
    49    32    30    1
    50     4     7    1
    51    42    43    1
@<TRIPOS>MOLECULE
*****
 47 51 0 0 0
SMALL
GASTEIGER

@<TRIPOS>ATOM
      1 C          60.5530   89.1391    9.1210 C.3     1  UNL1        0.0337
      2 C          60.1868   89.6861    7.7731 C.3     1  UNL1        0.0220
      3 C          59.1993   88.9572    6.9109 C.3     1  UNL1        0.0689
      4 N          58.5779   87.6813    7.3965 N.3     1  UNL1       -0.2970
      5 C          58.9440   87.1342    8.7444 C.3     1  UNL1        0.0780
      6 C          59.9316   87.8631    9.6066 C.3     1  UNL1        0.0964
      7 H          58.8117   86.9611    6.7130 H       1  UNL1        0.1233
      8 C          63.5156   91.3258   11.7077 C.ar    1  UNL1        0.1387
      9 C          62.4758   90.4468   12.3370 C.ar    1  UNL1        0.0366
     10 C          61.4882   89.7179   11.4747 C.ar    1  UNL1       -0.0012
     11 C          61.5405   89.8680    9.9832 C.ar    1  UNL1       -0.0217
     12 C          62.5804   90.7471    9.3538 C.ar    1  UNL1       -0.0012
     13 C          63.5679   91.4760   10.2161 C.ar    1  UNL1        0.0366
     14 O          64.5031   92.0547   12.5699 O.3     1  UNL1       -0.4714
     15 C          65.2039   93.2719   12.0430 C.3     1  UNL1        0.2525
     16 C          66.5722   93.6259   12.5456 C.3     1  UNL1        0.2525
     17 O          67.5612   94.2826   11.6288 O.3     1  UNL1       -0.4697
     18 C          65.6885   96.8531    6.5411 C.3     1  UNL1        0.0311
     19 C          66.1567   96.2104    7.8130 C.ar    1  UNL1       -0.0200
     20 C          65.8250   96.8357    9.1355 C.ar    1  UNL1        0.0103
     21 C          66.2932   96.1931   10.4074 C.ar    1  UNL1        0.0921
     22 CL         65.9615   96.8184   11.7299 Cl      1  UNL1       -0.0791
     23 C          67.0930   94.9252   10.3569 C.ar    1  UNL1        0.1596
     24 C          67.4247   94.2999    9.0344 C.ar    1  UNL1        0.0921
     25 CL         68.2246   93.0319    8.9838 Cl      1  UNL1       -0.0791
     26 C          66.9565   94.9425    7.7625 C.ar    1  UNL1        0.0103
     27 C          60.2977   87.3161   10.9544 C.2     1  UNL1        0.2270
     28 O          59.5790   87.7977   12.1798 O.2     1  UNL1       -0.2748
     29 N          61.3825   86.2875   11.0769 N.am    1  UNL1       -0.2770
     30 C          62.1012   85.8058    9.8515 C.3     1  UNL1        0.0758
     31 C          63.2840   85.1346    9.2189 C.3     1  UNL1        0.0215
     32 C          62.1630   85.6429    8.3617 C.3     1  UNL1        0.0215
     33 C          61.7487   85.7404   12.4248 C.3     1  UNL1        0.1209
     34 C          62.7192   84.6019   12.5337 C.ar    1  UNL1        0.0080
     35 C          62.4297   83.3011   11.8451 C.ar    1  UNL1       -0.0047
     36 C          63.4003   82.1626   11.9541 C.ar    1  UNL1       -0.0066
     37 C          64.6603   82.3249   12.7515 C.ar    1  UNL1       -0.0021
     38 C          64.9498   83.6257   13.4401 C.ar    1  UNL1        0.0109
     39 C          63.9793   84.7642   13.3312 C.ar    1  UNL1        0.0553
     40 CL         64.2688   86.0650   14.0197 Cl      1  UNL1       -0.0825
     41 C          63.1108   80.8617   11.2655 C.3     1  UNL1        0.0958
     42 N          62.4591   79.7419   12.0213 N.3     1  UNL1       -0.2890
     43 H          63.0043   78.9012   11.8301 H       1  UNL1        0.1237
     44 C          62.3082   79.8305   13.5110 C.3     1  UNL1        0.1420
     45 C          61.2932   80.7596   14.1081 C.3     1  UNL1        0.3341
     46 F          59.8435   80.3749   14.1264 F       1  UNL1       -0.1969
     47 F          61.7278   82.0735   14.6868 F       1  UNL1       -0.1969
@<TRIPOS>BOND
     1    18    19    1
     2    19    20   ar
     3    20    21   ar
     4    21    22    1
     5    21    23   ar
     6    23    17    1
     7    17    16    1
     8    16    15    1
     9    15    14    1
    10    14     8    1
    11     8     9   ar
    12     9    10   ar
    13    10    11   ar
    14     1    11    1
    15     1     2    1
    16     2     3    1
    17     3     4    1
    18     4     5    1
    19     5     6    1
    20     6    27    1
    21    27    28    2
    22    27    29   am
    23    29    33    1
    24    33    34    1
    25    34    35   ar
    26    35    36   ar
    27    36    41    1
    28    41    42    1
    29    42    44    1
    30    44    45    1
    31    45    46    1
    32    45    47    1
    33    36    37   ar
    34    37    38   ar
    35    38    39   ar
    36    39    40    1
    37    29    30    1
    38    30    31    1
    39    31    32    1
    40    11    12   ar
    41    12    13   ar
    42    23    24   ar
    43    24    25    1
    44    24    26   ar
    45    26    19   ar
    46    13     8   ar
    47     6     1    1
    48    39    34   ar
    49    32    30    1
    50     4     7    1
    51    42    43    1
@<TRIPOS>MOLECULE
*****
 47 51 0 0 0
SMALL
GASTEIGER

@<TRIPOS>ATOM
      1 C          60.8180   89.0535    9.4127 C.3     1  UNL1        0.0337
      2 C          60.4860   89.8969    8.2175 C.3     1  UNL1        0.0220
      3 C          59.6557   89.3279    7.1054 C.3     1  UNL1        0.0689
      4 N          59.1575   87.9156    7.1883 N.3     1  UNL1       -0.2970
      5 C          59.4895   87.0721    8.3835 C.3     1  UNL1        0.0780
      6 C          60.3198   87.6410    9.4957 C.3     1  UNL1        0.0964
      7 H          59.5231   87.4259    6.3716 H       1  UNL1        0.1233
      8 C          63.3088   90.7604   12.7492 C.ar    1  UNL1        0.1387
      9 C          63.8859   90.6365   11.3702 C.ar    1  UNL1        0.0366
     10 C          63.0556   90.0676   10.2580 C.ar    1  UNL1       -0.0012
     11 C          61.6483   89.6224   10.5248 C.ar    1  UNL1       -0.0217
     12 C          61.0712   89.7463   11.9039 C.ar    1  UNL1       -0.0012
     13 C          61.9014   90.3152   13.0161 C.ar    1  UNL1        0.0366
     14 O          64.1391   91.3293   13.8614 O.3     1  UNL1       -0.4714
     15 C          65.5037   91.8809   13.5720 C.3     1  UNL1        0.2525
     16 C          65.6567   93.0671   12.6666 C.3     1  UNL1        0.2525
     17 O          66.9838   93.3599   12.0318 O.3     1  UNL1       -0.4697
     18 C          67.2742   96.8489    7.1592 C.3     1  UNL1        0.0311
     19 C          67.2016   95.9767    8.3774 C.ar    1  UNL1       -0.0200
     20 C          67.6217   94.5390    8.2965 C.ar    1  UNL1        0.0103
     21 C          67.5491   93.6667    9.5147 C.ar    1  UNL1        0.0921
     22 CL         67.9693   92.2290    9.4337 Cl      1  UNL1       -0.0791
     23 C          67.0564   94.2321   10.8137 C.ar    1  UNL1        0.1596
     24 C          66.6363   95.6698   10.8945 C.ar    1  UNL1        0.0921
     25 CL         66.1435   96.2353   12.1936 Cl      1  UNL1       -0.0791
     26 C          66.7089   96.5421    9.6764 C.ar    1  UNL1        0.0103
     27 C          60.6518   86.7976   10.6908 C.2     1  UNL1        0.2270
     28 O          59.9943   87.0746   12.0103 O.2     1  UNL1       -0.2748
     29 N          61.6413   85.6772   10.5665 N.am    1  UNL1       -0.2770
     30 C          62.2988   85.4002    9.2470 C.3     1  UNL1        0.0758
     31 C          63.5406   85.2796    8.4144 C.3     1  UNL1        0.0215
     32 C          62.1958   85.0411    7.7943 C.3     1  UNL1        0.0215
     33 C          61.9734   84.8338   11.7616 C.3     1  UNL1        0.1209
     34 C          63.0747   85.2503   12.6909 C.ar    1  UNL1        0.0080
     35 C          63.0975   86.6416   13.2509 C.ar    1  UNL1       -0.0047
     36 C          64.1989   87.0581   14.1802 C.ar    1  UNL1       -0.0066
     37 C          65.2774   86.0832   14.5495 C.ar    1  UNL1       -0.0021
     38 C          65.2546   84.6919   13.9894 C.ar    1  UNL1        0.0109
     39 C          64.1533   84.2754   13.0602 C.ar    1  UNL1        0.0553
     40 CL         64.1305   82.8840   12.5001 Cl      1  UNL1       -0.0825
     41 C          64.2216   88.4494   14.7403 C.3     1  UNL1        0.0958
     42 N          63.1429   88.8967   15.6817 N.3     1  UNL1       -0.2890
     43 H          62.2593   88.5625   15.2971 H       1  UNL1        0.1237
     44 C          63.1782   88.4708   17.1195 C.3     1  UNL1        0.1420
     45 C          62.6804   87.1112   17.5113 C.3     1  UNL1        0.3341
     46 F          61.8540   86.3092   16.5501 F       1  UNL1       -0.1969
     47 F          63.0090   86.5534   18.8645 F       1  UNL1       -0.1969
@<TRIPOS>BOND
     1    18    19    1
     2    19    20   ar
     3    20    21   ar
     4    21    22    1
     5    21    23   ar
     6    23    17    1
     7    17    16    1
     8    16    15    1
     9    15    14    1
    10    14     8    1
    11     8     9   ar
    12     9    10   ar
    13    10    11   ar
    14     1    11    1
    15     1     2    1
    16     2     3    1
    17     3     4    1
    18     4     5    1
    19     5     6    1
    20     6    27    1
    21    27    28    2
    22    27    29   am
    23    29    33    1
    24    33    34    1
    25    34    35   ar
    26    35    36   ar
    27    36    41    1
    28    41    42    1
    29    42    44    1
    30    44    45    1
    31    45    46    1
    32    45    47    1
    33    36    37   ar
    34    37    38   ar
    35    38    39   ar
    36    39    40    1
    37    29    30    1
    38    30    31    1
    39    31    32    1
    40    11    12   ar
    41    12    13   ar
    42    23    24   ar
    43    24    25    1
    44    24    26   ar
    45    26    19   ar
    46    13     8   ar
    47     6     1    1
    48    39    34   ar
    49    32    30    1
    50     4     7    1
    51    42    43    1
@<TRIPOS>MOLECULE
*****
 47 51 0 0 0
SMALL
GASTEIGER

@<TRIPOS>ATOM
      1 C          60.8157   86.9013    8.7508 C.3     1  UNL1        0.0337
      2 C          59.7357   86.5426    7.7737 C.3     1  UNL1        0.0220
      3 C          58.7996   87.6003    7.2687 C.3     1  UNL1        0.0689
      4 N          58.9436   89.0167    7.7407 N.3     1  UNL1       -0.2970
      5 C          60.0237   89.3755    8.7178 C.3     1  UNL1        0.0780
      6 C          60.9598   88.3178    9.2229 C.3     1  UNL1        0.0964
      7 H          58.0569   89.2742    8.1742 H       1  UNL1        0.1233
      8 C          63.6239   83.7282   10.2659 C.ar    1  UNL1        0.1387
      9 C          63.6784   84.1538    8.8286 C.ar    1  UNL1        0.0366
     10 C          62.7423   85.2114    8.3235 C.ar    1  UNL1       -0.0012
     11 C          61.7518   85.8436    9.2558 C.ar    1  UNL1       -0.0217
     12 C          61.6973   85.4181   10.6932 C.ar    1  UNL1       -0.0012
     13 C          62.6334   84.3604   11.1983 C.ar    1  UNL1        0.0366
     14 O          64.5600   82.6705   10.7709 O.3     1  UNL1       -0.4714
     15 C          64.0372   81.5494   11.6195 C.3     1  UNL1        0.2525
     16 C          63.9645   81.7075   13.1093 C.3     1  UNL1        0.2525
     17 O          64.8007   82.7470   13.7950 O.3     1  UNL1       -0.4697
     18 C          62.2068   86.7947   17.3849 C.3     1  UNL1        0.0311
     19 C          62.8553   85.7828   16.4874 C.ar    1  UNL1       -0.0200
     20 C          64.2584   85.9994   16.0035 C.ar    1  UNL1        0.0103
     21 C          64.9069   84.9875   15.1060 C.ar    1  UNL1        0.0921
     22 CL         66.3101   85.2042   14.6221 Cl      1  UNL1       -0.0791
     23 C          64.1522   83.7589   14.6924 C.ar    1  UNL1        0.1596
     24 C          62.7491   83.5423   15.1763 C.ar    1  UNL1        0.0921
     25 CL         61.9943   82.3137   14.7628 Cl      1  UNL1       -0.0791
     26 C          62.1006   84.5542   16.0738 C.ar    1  UNL1        0.0103
     27 C          62.0398   88.6766   10.2000 C.2     1  UNL1        0.2270
     28 O          63.4653   88.3105    9.9101 O.2     1  UNL1       -0.2748
     29 N          61.6944   89.4015   11.4669 N.am    1  UNL1       -0.2770
     30 C          60.2689   89.7676   11.7567 C.3     1  UNL1        0.0758
     31 C          59.1375   90.7490   11.6751 C.3     1  UNL1        0.0215
     32 C          58.9315   89.4205   12.3404 C.3     1  UNL1        0.0215
     33 C          62.7744   89.7603   12.4441 C.3     1  UNL1        0.1209
     34 C          63.7459   90.8561   12.1193 C.ar    1  UNL1        0.0080
     35 C          64.8375   91.2022   13.0881 C.ar    1  UNL1       -0.0047
     36 C          65.8090   92.2980   12.7633 C.ar    1  UNL1       -0.0066
     37 C          65.6888   93.0477   11.4697 C.ar    1  UNL1       -0.0021
     38 C          64.5972   92.7016   10.5009 C.ar    1  UNL1        0.0109
     39 C          63.6258   91.6059   10.8256 C.ar    1  UNL1        0.0553
     40 CL         62.5341   91.2598    9.8568 Cl      1  UNL1       -0.0825
     41 C          66.9006   92.6441   13.7321 C.3     1  UNL1        0.0958
     42 N          68.2436   91.9865   13.6150 N.3     1  UNL1       -0.2890
     43 H          68.6400   92.2832   12.7232 H       1  UNL1        0.1237
     44 C          69.2928   92.2325   14.6584 C.3     1  UNL1        0.1420
     45 C          68.9204   92.8832   15.9576 C.3     1  UNL1        0.3341
     46 F          69.4690   94.2357   16.3034 F       1  UNL1       -0.1969
     47 F          67.9993   92.1813   16.9110 F       1  UNL1       -0.1969
@<TRIPOS>BOND
     1    18    19    1
     2    19    20   ar
     3    20    21   ar
     4    21    22    1
     5    21    23   ar
     6    23    17    1
     7    17    16    1
     8    16    15    1
     9    15    14    1
    10    14     8    1
    11     8     9   ar
    12     9    10   ar
    13    10    11   ar
    14     1    11    1
    15     1     2    1
    16     2     3    1
    17     3     4    1
    18     4     5    1
    19     5     6    1
    20     6    27    1
    21    27    28    2
    22    27    29   am
    23    29    33    1
    24    33    34    1
    25    34    35   ar
    26    35    36   ar
    27    36    41    1
    28    41    42    1
    29    42    44    1
    30    44    45    1
    31    45    46    1
    32    45    47    1
    33    36    37   ar
    34    37    38   ar
    35    38    39   ar
    36    39    40    1
    37    29    30    1
    38    30    31    1
    39    31    32    1
    40    11    12   ar
    41    12    13   ar
    42    23    24   ar
    43    24    25    1
    44    24    26   ar
    45    26    19   ar
    46    13     8   ar
    47     6     1    1
    48    39    34   ar
    49    32    30    1
    50     4     7    1
    51    42    43    1
@<TRIPOS>MOLECULE
*****
 47 51 0 0 0
SMALL
GASTEIGER

@<TRIPOS>ATOM
      1 C          64.7060   90.1852   14.6261 C.3     1  UNL1        0.0337
      2 C          66.0287   90.7788   15.0109 C.3     1  UNL1        0.0220
      3 C          66.4746   92.0751   14.4019 C.3     1  UNL1        0.0689
      4 N          65.5979   92.7777   13.4081 N.3     1  UNL1       -0.2970
      5 C          64.2751   92.1841   13.0233 C.3     1  UNL1        0.0780
      6 C          63.8292   90.8879   13.6323 C.3     1  UNL1        0.0964
      7 H          66.1407   92.8690   12.5494 H       1  UNL1        0.1233
      8 C          63.3681   86.2965   16.4531 C.ar    1  UNL1        0.1387
      9 C          63.0055   87.5966   17.1075 C.ar    1  UNL1        0.0366
     10 C          63.4515   88.8929   16.4985 C.ar    1  UNL1       -0.0012
     11 C          64.2600   88.8890   15.2351 C.ar    1  UNL1       -0.0217
     12 C          64.6226   87.5889   14.5807 C.ar    1  UNL1       -0.0012
     13 C          64.1766   86.2926   15.1897 C.ar    1  UNL1        0.0366
     14 O          62.9221   85.0003   17.0621 O.3     1  UNL1       -0.4714
     15 C          62.3785   83.9089   16.1884 C.3     1  UNL1        0.2525
     16 C          63.1479   83.4615   14.9810 C.3     1  UNL1        0.2525
     17 O          62.5341   83.5725   13.6169 O.3     1  UNL1       -0.4697
     18 C          63.1016   79.0666    9.6959 C.3     1  UNL1        0.0311
     19 C          62.9597   80.1931   10.6761 C.ar    1  UNL1       -0.0200
     20 C          63.4194   81.5720   10.3057 C.ar    1  UNL1        0.0103
     21 C          63.2775   82.6985   11.2859 C.ar    1  UNL1        0.0921
     22 CL         63.7372   84.0774   10.9155 Cl      1  UNL1       -0.0791
     23 C          62.6760   82.4460   12.6366 C.ar    1  UNL1        0.1596
     24 C          62.2163   81.0671   13.0070 C.ar    1  UNL1        0.0921
     25 CL         61.6147   80.8146   14.3578 Cl      1  UNL1       -0.0791
     26 C          62.3582   79.9406   12.0268 C.ar    1  UNL1        0.0103
     27 C          62.5065   90.2943   13.2476 C.2     1  UNL1        0.2270
     28 O          61.6074   89.7193   14.3016 O.2     1  UNL1       -0.2748
     29 N          62.0829   90.2756   11.8088 N.am    1  UNL1       -0.2770
     30 C          62.9820   90.8506   10.7547 C.3     1  UNL1        0.0758
     31 C          64.3581   91.0699   10.1996 C.3     1  UNL1        0.0215
     32 C          63.1632   91.6271    9.4842 C.3     1  UNL1        0.0215
     33 C          60.7601   89.6820   11.4239 C.3     1  UNL1        0.1209
     34 C          60.6872   88.6589   10.3295 C.ar    1  UNL1        0.0080
     35 C          59.9041   88.9483    9.0833 C.ar    1  UNL1       -0.0047
     36 C          59.8311   87.9251    7.9888 C.ar    1  UNL1       -0.0066
     37 C          60.5412   86.6127    8.1405 C.ar    1  UNL1       -0.0021
     38 C          61.3243   86.3233    9.3867 C.ar    1  UNL1        0.0109
     39 C          61.3973   87.3464   10.4812 C.ar    1  UNL1        0.0553
     40 CL         62.1804   87.0570   11.7274 Cl      1  UNL1       -0.0825
     41 C          59.0480   88.2145    6.7426 C.3     1  UNL1        0.0958
     42 N          58.5549   89.6052    6.4726 N.3     1  UNL1       -0.2890
     43 H          58.4896   90.0749    7.3757 H       1  UNL1        0.1237
     44 C          59.3322   90.5139    5.5670 C.3     1  UNL1        0.1420
     45 C          58.6639   91.7045    4.9459 C.3     1  UNL1        0.3341
     46 F          57.1680   91.7597    4.8500 F       1  UNL1       -0.1969
     47 F          59.4915   92.8400    4.4208 F       1  UNL1       -0.1969
@<TRIPOS>BOND
     1    18    19    1
     2    19    20   ar
     3    20    21   ar
     4    21    22    1
     5    21    23   ar
     6    23    17    1
     7    17    16    1
     8    16    15    1
     9    15    14    1
    10    14     8    1
    11     8     9   ar
    12     9    10   ar
    13    10    11   ar
    14     1    11    1
    15     1     2    1
    16     2     3    1
    17     3     4    1
    18     4     5    1
    19     5     6    1
    20     6    27    1
    21    27    28    2
    22    27    29   am
    23    29    33    1
    24    33    34    1
    25    34    35   ar
    26    35    36   ar
    27    36    41    1
    28    41    42    1
    29    42    44    1
    30    44    45    1
    31    45    46    1
    32    45    47    1
    33    36    37   ar
    34    37    38   ar
    35    38    39   ar
    36    39    40    1
    37    29    30    1
    38    30    31    1
    39    31    32    1
    40    11    12   ar
    41    12    13   ar
    42    23    24   ar
    43    24    25    1
    44    24    26   ar
    45    26    19   ar
    46    13     8   ar
    47     6     1    1
    48    39    34   ar
    49    32    30    1
    50     4     7    1
    51    42    43    1
@<TRIPOS>MOLECULE
*****
 47 51 0 0 0
SMALL
GASTEIGER

@<TRIPOS>ATOM
      1 C          60.6875   86.8857    8.7301 C.3     1  UNL1        0.0337
      2 C          59.4373   86.4100    8.0514 C.3     1  UNL1        0.0220
      3 C          58.4327   87.4037    7.5479 C.3     1  UNL1        0.0689
      4 N          58.6783   88.8730    7.7231 N.3     1  UNL1       -0.2970
      5 C          59.9286   89.3487    8.4018 C.3     1  UNL1        0.0780
      6 C          60.9331   88.3551    8.9053 C.3     1  UNL1        0.0964
      7 H          57.8933   89.2407    8.2606 H       1  UNL1        0.1233
      8 C          63.7012   83.9048   10.2406 C.ar    1  UNL1        0.1387
      9 C          63.7195   84.3261    8.8012 C.ar    1  UNL1        0.0366
     10 C          62.7149   85.3197    8.2977 C.ar    1  UNL1       -0.0012
     11 C          61.6921   85.8921    9.2336 C.ar    1  UNL1       -0.0217
     12 C          61.6737   85.4708   10.6732 C.ar    1  UNL1       -0.0012
     13 C          62.6783   84.4772   11.1767 C.ar    1  UNL1        0.0366
     14 O          64.7058   82.9112   10.7442 O.3     1  UNL1       -0.4714
     15 C          64.2445   81.6114   11.3338 C.3     1  UNL1        0.2525
     16 C          64.0162   81.4974   12.8120 C.3     1  UNL1        0.2525
     17 O          64.7925   82.3630   13.7596 O.3     1  UNL1       -0.4697
     18 C          61.9273   86.3306   17.2309 C.3     1  UNL1        0.0311
     19 C          62.6436   85.3387   16.3631 C.ar    1  UNL1       -0.0200
     20 C          64.0691   85.5823   15.9648 C.ar    1  UNL1        0.0103
     21 C          64.7854   84.5904   15.0970 C.ar    1  UNL1        0.0921
     22 CL         66.2109   84.8341   14.6988 Cl      1  UNL1       -0.0791
     23 C          64.0762   83.3549   14.6274 C.ar    1  UNL1        0.1596
     24 C          62.6507   83.1113   15.0257 C.ar    1  UNL1        0.0921
     25 CL         61.9414   81.8757   14.5561 Cl      1  UNL1       -0.0791
     26 C          61.9344   84.1032   15.8935 C.ar    1  UNL1        0.0103
     27 C          62.1833   88.8308    9.5840 C.2     1  UNL1        0.2270
     28 O          63.5255   88.4946    9.0049 O.2     1  UNL1       -0.2748
     29 N          62.0913   89.6427   10.8419 N.am    1  UNL1       -0.2770
     30 C          60.7491   89.9790   11.4211 C.3     1  UNL1        0.0758
     31 C          59.5281   90.8497   11.4502 C.3     1  UNL1        0.0215
     32 C          59.6454   89.6906   12.3951 C.3     1  UNL1        0.0215
     33 C          63.3416   90.1185   11.5207 C.3     1  UNL1        0.1209
     34 C          63.5189   89.9125   12.9958 C.ar    1  UNL1        0.0080
     35 C          63.5991   91.0959   13.9140 C.ar    1  UNL1       -0.0047
     36 C          63.7764   90.8900   15.3892 C.ar    1  UNL1       -0.0066
     37 C          63.8736   89.5006   15.9462 C.ar    1  UNL1       -0.0021
     38 C          63.7934   88.3172   15.0280 C.ar    1  UNL1        0.0109
     39 C          63.6161   88.5231   13.5528 C.ar    1  UNL1        0.0553
     40 CL         63.5359   87.3397   12.6346 Cl      1  UNL1       -0.0825
     41 C          63.8566   92.0734   16.3075 C.3     1  UNL1        0.0958
     42 N          65.1906   92.6661   16.6523 N.3     1  UNL1       -0.2890
     43 H          65.5239   92.1777   17.4834 H       1  UNL1        0.1237
     44 C          66.3080   92.6310   15.6522 C.3     1  UNL1        0.1420
     45 C          67.7079   92.9582   16.0799 C.3     1  UNL1        0.3341
     46 F          68.5256   91.9376   16.8147 F       1  UNL1       -0.1969
     47 F          68.2903   94.3061   15.7730 F       1  UNL1       -0.1969
@<TRIPOS>BOND
     1    18    19    1
     2    19    20   ar
     3    20    21   ar
     4    21    22    1
     5    21    23   ar
     6    23    17    1
     7    17    16    1
     8    16    15    1
     9    15    14    1
    10    14     8    1
    11     8     9   ar
    12     9    10   ar
    13    10    11   ar
    14     1    11    1
    15     1     2    1
    16     2     3    1
    17     3     4    1
    18     4     5    1
    19     5     6    1
    20     6    27    1
    21    27    28    2
    22    27    29   am
    23    29    33    1
    24    33    34    1
    25    34    35   ar
    26    35    36   ar
    27    36    41    1
    28    41    42    1
    29    42    44    1
    30    44    45    1
    31    45    46    1
    32    45    47    1
    33    36    37   ar
    34    37    38   ar
    35    38    39   ar
    36    39    40    1
    37    29    30    1
    38    30    31    1
    39    31    32    1
    40    11    12   ar
    41    12    13   ar
    42    23    24   ar
    43    24    25    1
    44    24    26   ar
    45    26    19   ar
    46    13     8   ar
    47     6     1    1
    48    39    34   ar
    49    32    30    1
    50     4     7    1
    51    42    43    1
