@<TRIPOS>MOLECULE
*****
 30 31 0 0 0
SMALL
GASTEIGER

@<TRIPOS>ATOM
      1 C          61.8057   88.3994   10.0413 C.3     1  UNL1        0.0047
      2 C          61.8857   89.8712    9.7635 C.3     1  UNL1        0.0050
      3 C          62.5909   90.7792   10.7270 C.3     1  UNL1        0.0260
      4 C          63.2160   90.2153   11.9684 C.ar    1  UNL1       -0.0264
      5 C          63.9212   91.1232   12.9320 C.ar    1  UNL1       -0.0088
      6 C          64.5463   90.5593   14.1734 C.ar    1  UNL1       -0.0225
      7 C          64.4663   89.0874   14.4513 C.ar    1  UNL1       -0.0046
      8 C          63.7612   88.1794   13.4877 C.ar    1  UNL1       -0.0049
      9 C          63.1360   88.7434   12.2463 C.ar    1  UNL1       -0.0262
     10 C          62.4308   87.8355   11.2827 C.3     1  UNL1        0.0260
     11 C          61.1005   87.4915    9.0778 C.3     1  UNL1        0.0003
     12 C          61.4478   86.0330    9.0303 C.3     1  UNL1        0.0000
     13 C          62.8125   85.6012    8.5820 C.3     1  UNL1        0.0000
     14 C          63.3608   84.2751    9.0192 C.3     1  UNL1        0.0000
     15 C          63.7583   84.0627   10.4499 C.3     1  UNL1        0.0000
     16 C          62.7054   83.8593   11.4986 C.3     1  UNL1        0.0000
     17 C          64.1485   84.4771   13.5688 C.3     1  UNL1        0.0000
     18 C          62.8405   84.5248   12.8360 C.3     1  UNL1        0.0000
     19 C          65.2515   91.4672   15.1369 C.3     1  UNL1        0.0278
     20 C          66.0349   92.6400   14.6260 C.3     1  UNL1        0.0238
     21 C          67.5184   92.7011   14.8392 C.3     1  UNL1        0.0940
     22 N          67.3029   93.4355   16.1292 N.3     1  UNL1       -0.3193
     23 H          68.1488   93.3816   16.6966 H       1  UNL1        0.1189
     24 H          66.5259   93.0115   16.6361 H       1  UNL1        0.1189
     25 C          69.0020   92.7621   15.0523 C.3     1  UNL1        0.1536
     26 O          69.9333   92.2455   13.9960 O.3     1  UNL1       -0.3805
     27 H          69.8214   91.2861   13.9074 H       1  UNL1        0.2105
     28 C          67.7340   91.9666   13.5492 C.3     1  UNL1        0.1536
     29 O          67.3933   92.6251   12.2453 O.3     1  UNL1       -0.3805
     30 H          66.4347   92.7647   12.1943 H       1  UNL1        0.2105
@<TRIPOS>BOND
     1    17    18    1
     2    18    16    1
     3    16    15    1
     4    15    14    1
     5    14    13    1
     6    13    12    1
     7    12    11    1
     8    11     1    1
     9     1     2    1
    10     2     3    1
    11     3     4    1
    12     4     5   ar
    13     5     6   ar
    14     6    19    1
    15    19    20    1
    16    20    21    1
    17    21    22    1
    18    21    25    1
    19    25    26    1
    20    21    28    1
    21    28    29    1
    22     6     7   ar
    23     7     8   ar
    24     8     9   ar
    25     9    10    1
    26    10     1    1
    27     9     4   ar
    28    22    23    1
    29    22    24    1
    30    26    27    1
    31    29    30    1
@<TRIPOS>MOLECULE
*****
 30 31 0 0 0
SMALL
GASTEIGER

@<TRIPOS>ATOM
      1 C          63.4378   84.1702   13.6977 C.3     1  UNL1        0.0047
      2 C          64.1483   84.4658   14.9852 C.3     1  UNL1        0.0050
      3 C          64.4860   85.8816   15.3476 C.3     1  UNL1        0.0260
      4 C          64.1132   87.0019   14.4225 C.ar    1  UNL1       -0.0264
      5 C          64.4510   88.4178   14.7848 C.ar    1  UNL1       -0.0088
      6 C          64.0782   89.5381   13.8597 C.ar    1  UNL1       -0.0225
      7 C          63.3676   89.2425   12.5721 C.ar    1  UNL1       -0.0046
      8 C          63.0299   87.8267   12.2097 C.ar    1  UNL1       -0.0049
      9 C          63.4027   86.7064   13.1349 C.ar    1  UNL1       -0.0262
     10 C          63.0650   85.2905   12.7726 C.3     1  UNL1        0.0260
     11 C          63.1000   82.7544   13.3353 C.3     1  UNL1        0.0003
     12 C          62.6484   82.4237   11.9437 C.3     1  UNL1        0.0000
     13 C          63.6529   82.0216   10.9048 C.3     1  UNL1        0.0000
     14 C          64.1210   83.0202    9.8880 C.3     1  UNL1        0.0000
     15 C          63.5319   84.3995    9.8650 C.3     1  UNL1        0.0000
     16 C          63.0743   84.9981    8.5680 C.3     1  UNL1        0.0000
     17 C          61.0211   86.2180    9.5907 C.3     1  UNL1        0.0000
     18 C          62.1197   86.1551    8.5713 C.3     1  UNL1        0.0000
     19 C          64.4159   90.9539   14.2221 C.3     1  UNL1        0.0278
     20 C          65.5421   91.6583   13.5251 C.3     1  UNL1        0.0238
     21 C          66.6042   92.3506   14.3267 C.3     1  UNL1        0.0940
     22 N          65.5762   92.7509   15.3430 N.3     1  UNL1       -0.3193
     23 H          66.0414   93.0138   16.2119 H       1  UNL1        0.1189
     24 H          64.9475   91.9669   15.5177 H       1  UNL1        0.1189
     25 C          67.6663   93.0430   15.1283 C.3     1  UNL1        0.1536
     26 O          68.2752   92.3585   16.3161 O.3     1  UNL1       -0.3805
     27 H          67.6011   92.2443   17.0041 H       1  UNL1        0.2105
     28 C          67.6322   91.9504   13.3103 C.3     1  UNL1        0.1536
     29 O          69.0880   91.9623   13.6713 O.3     1  UNL1       -0.3805
     30 H          69.3721   92.8744   13.8390 H       1  UNL1        0.2105
@<TRIPOS>BOND
     1    17    18    1
     2    18    16    1
     3    16    15    1
     4    15    14    1
     5    14    13    1
     6    13    12    1
     7    12    11    1
     8    11     1    1
     9     1     2    1
    10     2     3    1
    11     3     4    1
    12     4     5   ar
    13     5     6   ar
    14     6    19    1
    15    19    20    1
    16    20    21    1
    17    21    22    1
    18    21    25    1
    19    25    26    1
    20    21    28    1
    21    28    29    1
    22     6     7   ar
    23     7     8   ar
    24     8     9   ar
    25     9    10    1
    26    10     1    1
    27     9     4   ar
    28    22    23    1
    29    22    24    1
    30    26    27    1
    31    29    30    1
@<TRIPOS>MOLECULE
*****
 30 31 0 0 0
SMALL
GASTEIGER

@<TRIPOS>ATOM
      1 C          61.2319   88.0879   10.1561 C.3     1  UNL1        0.0047
      2 C          61.3373   89.3622    9.3719 C.3     1  UNL1        0.0050
      3 C          62.2181   90.4734    9.8612 C.3     1  UNL1        0.0260
      4 C          62.9936   90.3102   11.1348 C.ar    1  UNL1       -0.0264
      5 C          63.8744   91.4214   11.6241 C.ar    1  UNL1       -0.0088
      6 C          64.6499   91.2582   12.8977 C.ar    1  UNL1       -0.0225
      7 C          64.5445   89.9839   13.6820 C.ar    1  UNL1       -0.0046
      8 C          63.6637   88.8727   13.1926 C.ar    1  UNL1       -0.0049
      9 C          62.8882   89.0359   11.9190 C.ar    1  UNL1       -0.0262
     10 C          62.0074   87.9248   11.4296 C.3     1  UNL1        0.0260
     11 C          60.3511   86.9768    9.6667 C.3     1  UNL1        0.0003
     12 C          60.4159   86.5449    8.2317 C.3     1  UNL1        0.0000
     13 C          61.4593   85.5617    7.7908 C.3     1  UNL1        0.0000
     14 C          62.8391   85.6190    8.3766 C.3     1  UNL1        0.0000
     15 C          63.3068   84.5347    9.3015 C.3     1  UNL1        0.0000
     16 C          62.8616   84.5268   10.7338 C.3     1  UNL1        0.0000
     17 C          64.1081   82.2793   11.1145 C.3     1  UNL1        0.0000
     18 C          63.3145   83.4323   11.6540 C.3     1  UNL1        0.0000
     19 C          65.5307   92.3694   13.3871 C.3     1  UNL1        0.0278
     20 C          67.0225   92.2363   13.3030 C.3     1  UNL1        0.0238
     21 C          67.8698   92.5204   14.5077 C.3     1  UNL1        0.0940
     22 N          69.0538   91.9087   13.8191 N.3     1  UNL1       -0.3193
     23 H          69.9102   92.2076   14.2856 H       1  UNL1        0.1189
     24 H          69.0741   92.2107   12.8450 H       1  UNL1        0.1189
     25 C          68.7172   92.8045   15.7123 C.3     1  UNL1        0.1536
     26 O          69.1420   94.2108   16.0158 O.3     1  UNL1       -0.3805
     27 H          69.7393   94.5255   15.3193 H       1  UNL1        0.2105
     28 C          66.6859   93.1321   15.1962 C.3     1  UNL1        0.1536
     29 O          66.5676   93.0610   16.6898 O.3     1  UNL1       -0.3805
     30 H          66.4538   92.1369   16.9616 H       1  UNL1        0.2105
@<TRIPOS>BOND
     1    17    18    1
     2    18    16    1
     3    16    15    1
     4    15    14    1
     5    14    13    1
     6    13    12    1
     7    12    11    1
     8    11     1    1
     9     1     2    1
    10     2     3    1
    11     3     4    1
    12     4     5   ar
    13     5     6   ar
    14     6    19    1
    15    19    20    1
    16    20    21    1
    17    21    22    1
    18    21    25    1
    19    25    26    1
    20    21    28    1
    21    28    29    1
    22     6     7   ar
    23     7     8   ar
    24     8     9   ar
    25     9    10    1
    26    10     1    1
    27     9     4   ar
    28    22    23    1
    29    22    24    1
    30    26    27    1
    31    29    30    1
@<TRIPOS>MOLECULE
*****
 30 31 0 0 0
SMALL
GASTEIGER

@<TRIPOS>ATOM
      1 C          60.7453   87.9453    9.4100 C.3     1  UNL1        0.0047
      2 C          61.0180   87.1183   10.6313 C.3     1  UNL1        0.0050
      3 C          61.9384   87.6354   11.6970 C.3     1  UNL1        0.0260
      4 C          62.5859   88.9794   11.5413 C.ar    1  UNL1       -0.0264
      5 C          63.5063   89.4965   12.6069 C.ar    1  UNL1       -0.0088
      6 C          64.1538   90.8405   12.4513 C.ar    1  UNL1       -0.0225
      7 C          63.8810   91.6675   11.2299 C.ar    1  UNL1       -0.0046
      8 C          62.9607   91.1504   10.1642 C.ar    1  UNL1       -0.0049
      9 C          62.3131   89.8063   10.3199 C.ar    1  UNL1       -0.0262
     10 C          61.3928   89.2893    9.2543 C.3     1  UNL1        0.0260
     11 C          59.8249   87.4282    8.3443 C.3     1  UNL1        0.0003
     12 C          59.9415   86.0076    7.8773 C.3     1  UNL1        0.0000
     13 C          61.0207   85.6224    6.9094 C.3     1  UNL1        0.0000
     14 C          62.1601   84.7579    7.3616 C.3     1  UNL1        0.0000
     15 C          63.1238   85.2661    8.3926 C.3     1  UNL1        0.0000
     16 C          63.2456   84.5674    9.7143 C.3     1  UNL1        0.0000
     17 C          64.0733   82.5275   11.0942 C.3     1  UNL1        0.0000
     18 C          64.1199   83.3554    9.8442 C.3     1  UNL1        0.0000
     19 C          65.0741   91.3575   13.5169 C.3     1  UNL1        0.0278
     20 C          66.1097   92.3885   13.1780 C.3     1  UNL1        0.0238
     21 C          66.9970   92.9420   14.2534 C.3     1  UNL1        0.0940
     22 N          66.1587   94.1848   14.3054 N.3     1  UNL1       -0.3193
     23 H          66.3381   94.6796   15.1791 H       1  UNL1        0.1189
     24 H          65.1719   93.9318   14.2543 H       1  UNL1        0.1189
     25 C          67.8842   93.4954   15.3288 C.3     1  UNL1        0.1536
     26 O          69.0281   92.6780   15.8519 O.3     1  UNL1       -0.3805
     27 H          68.6833   91.8967   16.3119 H       1  UNL1        0.2105
     28 C          67.8352   91.6991   14.2014 C.3     1  UNL1        0.1536
     29 O          68.9417   91.5823   13.1955 O.3     1  UNL1       -0.3805
     30 H          68.5653   91.5618   12.3017 H       1  UNL1        0.2105
@<TRIPOS>BOND
     1    17    18    1
     2    18    16    1
     3    16    15    1
     4    15    14    1
     5    14    13    1
     6    13    12    1
     7    12    11    1
     8    11     1    1
     9     1     2    1
    10     2     3    1
    11     3     4    1
    12     4     5   ar
    13     5     6   ar
    14     6    19    1
    15    19    20    1
    16    20    21    1
    17    21    22    1
    18    21    25    1
    19    25    26    1
    20    21    28    1
    21    28    29    1
    22     6     7   ar
    23     7     8   ar
    24     8     9   ar
    25     9    10    1
    26    10     1    1
    27     9     4   ar
    28    22    23    1
    29    22    24    1
    30    26    27    1
    31    29    30    1
@<TRIPOS>MOLECULE
*****
 30 31 0 0 0
SMALL
GASTEIGER

@<TRIPOS>ATOM
      1 C          61.8702   88.7497   11.2442 C.3     1  UNL1        0.0047
      2 C          61.9006   89.6459   10.0419 C.3     1  UNL1        0.0050
      3 C          62.8207   90.8302   10.0122 C.3     1  UNL1        0.0260
      4 C          63.7105   91.1182   11.1850 C.ar    1  UNL1       -0.0264
      5 C          64.6306   92.3025   11.1554 C.ar    1  UNL1       -0.0088
      6 C          65.5203   92.5905   12.3281 C.ar    1  UNL1       -0.0225
      7 C          65.4900   91.6942   13.5305 C.ar    1  UNL1       -0.0046
      8 C          64.5699   90.5099   13.5602 C.ar    1  UNL1       -0.0049
      9 C          63.6801   90.2219   12.3873 C.ar    1  UNL1       -0.0262
     10 C          62.7600   89.0377   12.4170 C.3     1  UNL1        0.0260
     11 C          60.9501   87.5654   11.2738 C.3     1  UNL1        0.0003
     12 C          61.5028   86.1817   11.1011 C.3     1  UNL1        0.0000
     13 C          62.2197   85.8129    9.8361 C.3     1  UNL1        0.0000
     14 C          61.7236   86.3250    8.5163 C.3     1  UNL1        0.0000
     15 C          60.3602   85.9371    8.0259 C.3     1  UNL1        0.0000
     16 C          59.2911   86.9791    7.8798 C.3     1  UNL1        0.0000
     17 C          59.2159   89.3005    6.7155 C.3     1  UNL1        0.0000
     18 C          59.6592   88.4330    7.8562 C.3     1  UNL1        0.0000
     19 C          66.4404   93.7748   12.2985 C.3     1  UNL1        0.0278
     20 C          66.1027   94.9660   11.4517 C.3     1  UNL1        0.0238
     21 C          66.8220   95.1927   10.1551 C.3     1  UNL1        0.0940
     22 N          67.6570   93.9718   10.4049 N.3     1  UNL1       -0.3193
     23 H          68.0844   93.6675    9.5302 H       1  UNL1        0.1189
     24 H          67.0668   93.2256   10.7726 H       1  UNL1        0.1189
     25 C          67.5413   95.4193    8.8585 C.3     1  UNL1        0.1536
     26 O          67.8062   96.8168    8.3821 O.3     1  UNL1       -0.3805
     27 H          66.9645   97.2543    8.1794 H       1  UNL1        0.2105
     28 C          65.9870   96.4135    9.9052 C.3     1  UNL1        0.1536
     29 O          64.9792   96.8543   10.9250 O.3     1  UNL1       -0.3805
     30 H          64.2769   96.1888   10.9943 H       1  UNL1        0.2105
@<TRIPOS>BOND
     1    17    18    1
     2    18    16    1
     3    16    15    1
     4    15    14    1
     5    14    13    1
     6    13    12    1
     7    12    11    1
     8    11     1    1
     9     1     2    1
    10     2     3    1
    11     3     4    1
    12     4     5   ar
    13     5     6   ar
    14     6    19    1
    15    19    20    1
    16    20    21    1
    17    21    22    1
    18    21    25    1
    19    25    26    1
    20    21    28    1
    21    28    29    1
    22     6     7   ar
    23     7     8   ar
    24     8     9   ar
    25     9    10    1
    26    10     1    1
    27     9     4   ar
    28    22    23    1
    29    22    24    1
    30    26    27    1
    31    29    30    1
@<TRIPOS>MOLECULE
*****
 30 31 0 0 0
SMALL
GASTEIGER

@<TRIPOS>ATOM
      1 C          62.7489   85.9122   11.8395 C.3     1  UNL1        0.0047
      2 C          63.4348   85.4852   13.1032 C.3     1  UNL1        0.0050
      3 C          64.0102   86.5155   14.0292 C.3     1  UNL1        0.0260
      4 C          63.8998   87.9727   13.6914 C.ar    1  UNL1       -0.0264
      5 C          64.4752   89.0030   14.6174 C.ar    1  UNL1       -0.0088
      6 C          64.3648   90.4602   14.2796 C.ar    1  UNL1       -0.0225
      7 C          63.6788   90.8873   13.0158 C.ar    1  UNL1       -0.0046
      8 C          63.1034   89.8571   12.0898 C.ar    1  UNL1       -0.0049
      9 C          63.2139   88.3997   12.4277 C.ar    1  UNL1       -0.0262
     10 C          62.6384   87.3695   11.5017 C.3     1  UNL1        0.0260
     11 C          62.1734   84.8820   10.9135 C.3     1  UNL1        0.0003
     12 C          62.9560   84.4283    9.7170 C.3     1  UNL1        0.0000
     13 C          64.1176   83.4952    9.8903 C.3     1  UNL1        0.0000
     14 C          64.2162   82.6405   11.1191 C.3     1  UNL1        0.0000
     15 C          63.0823   81.7331   11.4945 C.3     1  UNL1        0.0000
     16 C          62.4774   81.8160   12.8645 C.3     1  UNL1        0.0000
     17 C          60.5577   80.6425   14.1637 C.3     1  UNL1        0.0000
     18 C          61.9054   80.5873   13.5074 C.3     1  UNL1        0.0000
     19 C          64.9402   91.4905   15.2056 C.3     1  UNL1        0.0278
     20 C          65.8737   92.5380   14.6750 C.3     1  UNL1        0.0238
     21 C          67.3254   92.5090   15.0516 C.3     1  UNL1        0.0940
     22 N          67.0055   93.2105   16.3383 N.3     1  UNL1       -0.3193
     23 H          67.7790   93.0905   16.9924 H       1  UNL1        0.1189
     24 H          66.1560   92.8137   16.7399 H       1  UNL1        0.1189
     25 C          68.7770   92.4801   15.4282 C.3     1  UNL1        0.1536
     26 O          69.8296   92.4996   14.3597 O.3     1  UNL1       -0.3805
     27 H          69.7799   91.6808   13.8419 H       1  UNL1        0.2105
     28 C          67.6452   91.8076   13.7649 C.3     1  UNL1        0.1536
     29 O          67.3814   92.4876   12.4543 O.3     1  UNL1       -0.3805
     30 H          66.4259   92.6092   12.3397 H       1  UNL1        0.2105
@<TRIPOS>BOND
     1    17    18    1
     2    18    16    1
     3    16    15    1
     4    15    14    1
     5    14    13    1
     6    13    12    1
     7    12    11    1
     8    11     1    1
     9     1     2    1
    10     2     3    1
    11     3     4    1
    12     4     5   ar
    13     5     6   ar
    14     6    19    1
    15    19    20    1
    16    20    21    1
    17    21    22    1
    18    21    25    1
    19    25    26    1
    20    21    28    1
    21    28    29    1
    22     6     7   ar
    23     7     8   ar
    24     8     9   ar
    25     9    10    1
    26    10     1    1
    27     9     4   ar
    28    22    23    1
    29    22    24    1
    30    26    27    1
    31    29    30    1
@<TRIPOS>MOLECULE
*****
 30 31 0 0 0
SMALL
GASTEIGER

@<TRIPOS>ATOM
      1 C          61.4048   88.1330   10.3192 C.3     1  UNL1        0.0047
      2 C          61.5441   89.4668    9.6474 C.3     1  UNL1        0.0050
      3 C          62.4285   90.5197   10.2468 C.3     1  UNL1        0.0260
      4 C          63.1735   90.2388   11.5180 C.ar    1  UNL1       -0.0264
      5 C          64.0578   91.2917   12.1174 C.ar    1  UNL1       -0.0088
      6 C          64.8028   91.0108   13.3886 C.ar    1  UNL1       -0.0225
      7 C          64.6635   89.6769   14.0605 C.ar    1  UNL1       -0.0046
      8 C          63.7792   88.6240   13.4611 C.ar    1  UNL1       -0.0049
      9 C          63.0342   88.9050   12.1898 C.ar    1  UNL1       -0.0262
     10 C          62.1498   87.8520   11.5904 C.3     1  UNL1        0.0260
     11 C          60.5205   87.0800    9.7198 C.3     1  UNL1        0.0003
     12 C          61.0841   86.0984    8.7357 C.3     1  UNL1        0.0000
     13 C          62.5689   85.9167    8.6242 C.3     1  UNL1        0.0000
     14 C          63.2441   84.7941    9.3550 C.3     1  UNL1        0.0000
     15 C          62.7543   84.3801   10.7109 C.3     1  UNL1        0.0000
     16 C          63.5295   83.3788   11.5149 C.3     1  UNL1        0.0000
     17 C          63.6927   84.9511   13.5767 C.3     1  UNL1        0.0000
     18 C          64.2300   83.8058   12.7707 C.3     1  UNL1        0.0000
     19 C          65.6872   92.0638   13.9880 C.3     1  UNL1        0.0278
     20 C          66.7924   92.6678   13.1732 C.3     1  UNL1        0.0238
     21 C          66.5158   93.8523   12.2954 C.3     1  UNL1        0.0940
     22 N          66.0434   94.6271   13.4898 N.3     1  UNL1       -0.3193
     23 H          66.0430   95.6232   13.2704 H       1  UNL1        0.1189
     24 H          66.6681   94.4526   14.2770 H       1  UNL1        0.1189
     25 C          66.2391   95.0368   11.4176 C.3     1  UNL1        0.1536
     26 O          65.1506   94.9691   10.3877 O.3     1  UNL1       -0.3805
     27 H          65.3868   94.3165    9.7100 H       1  UNL1        0.2105
     28 C          66.9881   93.0774   11.1010 C.3     1  UNL1        0.1536
     29 O          67.8641   93.7371   10.0776 O.3     1  UNL1       -0.3805
     30 H          67.3660   94.4385    9.6295 H       1  UNL1        0.2105
@<TRIPOS>BOND
     1    17    18    1
     2    18    16    1
     3    16    15    1
     4    15    14    1
     5    14    13    1
     6    13    12    1
     7    12    11    1
     8    11     1    1
     9     1     2    1
    10     2     3    1
    11     3     4    1
    12     4     5   ar
    13     5     6   ar
    14     6    19    1
    15    19    20    1
    16    20    21    1
    17    21    22    1
    18    21    25    1
    19    25    26    1
    20    21    28    1
    21    28    29    1
    22     6     7   ar
    23     7     8   ar
    24     8     9   ar
    25     9    10    1
    26    10     1    1
    27     9     4   ar
    28    22    23    1
    29    22    24    1
    30    26    27    1
    31    29    30    1
@<TRIPOS>MOLECULE
*****
 30 31 0 0 0
SMALL
GASTEIGER

@<TRIPOS>ATOM
      1 C          63.3623   84.0748   15.0346 C.3     1  UNL1        0.0047
      2 C          64.0018   84.6354   13.7990 C.3     1  UNL1        0.0050
      3 C          64.2645   86.1084   13.6928 C.3     1  UNL1        0.0260
      4 C          63.8878   87.0208   14.8221 C.ar    1  UNL1       -0.0264
      5 C          64.1505   88.4938   14.7159 C.ar    1  UNL1       -0.0088
      6 C          63.7737   89.4062   15.8453 C.ar    1  UNL1       -0.0225
      7 C          63.1342   88.8456   17.0810 C.ar    1  UNL1       -0.0046
      8 C          62.8715   87.3726   17.1872 C.ar    1  UNL1       -0.0049
      9 C          63.2483   86.4602   16.0577 C.ar    1  UNL1       -0.0262
     10 C          62.9855   84.9872   16.1640 C.3     1  UNL1        0.0260
     11 C          63.0995   82.6018   15.1408 C.3     1  UNL1        0.0003
     12 C          62.1106   81.9482   14.2217 C.3     1  UNL1        0.0000
     13 C          62.5805   81.2992   12.9537 C.3     1  UNL1        0.0000
     14 C          62.6034   82.0821   11.6743 C.3     1  UNL1        0.0000
     15 C          63.8560   82.1369   10.8509 C.3     1  UNL1        0.0000
     16 C          64.1721   83.3633   10.0472 C.3     1  UNL1        0.0000
     17 C          63.0652   85.3004    8.7158 C.3     1  UNL1        0.0000
     18 C          63.1802   84.4859    9.9702 C.3     1  UNL1        0.0000
     19 C          64.0365   90.8792   15.7391 C.3     1  UNL1        0.0278
     20 C          65.1063   91.3856   14.8175 C.3     1  UNL1        0.0238
     21 C          66.2345   92.2117   15.3605 C.3     1  UNL1        0.0940
     22 N          65.3282   92.7472   16.4290 N.3     1  UNL1       -0.3193
     23 H          65.8888   93.1493   17.1803 H       1  UNL1        0.1189
     24 H          64.7555   91.9892   16.8005 H       1  UNL1        0.1189
     25 C          67.3627   93.0378   15.9034 C.3     1  UNL1        0.1536
     26 O          68.6508   92.3795   16.3004 O.3     1  UNL1       -0.3805
     27 H          68.4955   91.7972   17.0605 H       1  UNL1        0.2105
     28 C          67.1408   91.6762   14.2919 C.3     1  UNL1        0.1536
     29 O          68.1330   92.5830   13.6263 O.3     1  UNL1       -0.3805
     30 H          67.6611   93.2589   13.1151 H       1  UNL1        0.2105
@<TRIPOS>BOND
     1    17    18    1
     2    18    16    1
     3    16    15    1
     4    15    14    1
     5    14    13    1
     6    13    12    1
     7    12    11    1
     8    11     1    1
     9     1     2    1
    10     2     3    1
    11     3     4    1
    12     4     5   ar
    13     5     6   ar
    14     6    19    1
    15    19    20    1
    16    20    21    1
    17    21    22    1
    18    21    25    1
    19    25    26    1
    20    21    28    1
    21    28    29    1
    22     6     7   ar
    23     7     8   ar
    24     8     9   ar
    25     9    10    1
    26    10     1    1
    27     9     4   ar
    28    22    23    1
    29    22    24    1
    30    26    27    1
    31    29    30    1
@<TRIPOS>MOLECULE
*****
 30 31 0 0 0
SMALL
GASTEIGER

@<TRIPOS>ATOM
      1 C          63.3999   84.8039   13.8441 C.3     1  UNL1        0.0047
      2 C          62.7294   85.0565   12.5263 C.3     1  UNL1        0.0050
      3 C          62.6825   86.4458   11.9627 C.3     1  UNL1        0.0260
      4 C          63.3060   87.5826   12.7169 C.ar    1  UNL1       -0.0264
      5 C          63.2591   88.9719   12.1534 C.ar    1  UNL1       -0.0088
      6 C          63.8826   90.1086   12.9076 C.ar    1  UNL1       -0.0225
      7 C          64.5531   89.8561   14.2255 C.ar    1  UNL1       -0.0046
      8 C          64.6000   88.4668   14.7891 C.ar    1  UNL1       -0.0049
      9 C          63.9765   87.3300   14.0347 C.ar    1  UNL1       -0.0262
     10 C          64.0234   85.9407   14.5983 C.3     1  UNL1        0.0260
     11 C          63.4468   83.4146   14.4076 C.3     1  UNL1        0.0003
     12 C          62.1932   82.5950   14.4878 C.3     1  UNL1        0.0000
     13 C          62.2175   81.1470   14.0971 C.3     1  UNL1        0.0000
     14 C          62.7729   80.7389   12.7647 C.3     1  UNL1        0.0000
     15 C          62.6579   81.6635   11.5892 C.3     1  UNL1        0.0000
     16 C          63.7708   81.7442   10.5868 C.3     1  UNL1        0.0000
     17 C          63.5674   83.9969    9.3084 C.3     1  UNL1        0.0000
     18 C          64.3420   83.0779   10.2060 C.3     1  UNL1        0.0000
     19 C          63.8356   91.4980   12.3441 C.3     1  UNL1        0.0278
     20 C          64.9935   92.4296   12.5481 C.3     1  UNL1        0.0238
     21 C          66.0721   92.5240   11.5099 C.3     1  UNL1        0.0940
     22 N          65.0378   92.8072   10.4611 N.3     1  UNL1       -0.3193
     23 H          65.4869   93.2188    9.6430 H       1  UNL1        0.1189
     24 H          64.3460   93.4581   10.8327 H       1  UNL1        0.1189
     25 C          67.1506   92.6184   10.4718 C.3     1  UNL1        0.1536
     26 O          67.8106   93.9365   10.1936 O.3     1  UNL1       -0.3805
     27 H          67.1625   94.5481    9.8104 H       1  UNL1        0.2105
     28 C          67.1064   92.2408   12.5587 C.3     1  UNL1        0.1536
     29 O          68.4995   91.8591   12.1545 O.3     1  UNL1       -0.3805
     30 H          68.4820   90.9986   11.7073 H       1  UNL1        0.2105
@<TRIPOS>BOND
     1    17    18    1
     2    18    16    1
     3    16    15    1
     4    15    14    1
     5    14    13    1
     6    13    12    1
     7    12    11    1
     8    11     1    1
     9     1     2    1
    10     2     3    1
    11     3     4    1
    12     4     5   ar
    13     5     6   ar
    14     6    19    1
    15    19    20    1
    16    20    21    1
    17    21    22    1
    18    21    25    1
    19    25    26    1
    20    21    28    1
    21    28    29    1
    22     6     7   ar
    23     7     8   ar
    24     8     9   ar
    25     9    10    1
    26    10     1    1
    27     9     4   ar
    28    22    23    1
    29    22    24    1
    30    26    27    1
    31    29    30    1
