@<TRIPOS>MOLECULE
*****
 24 26 0 0 0
SMALL
GASTEIGER

@<TRIPOS>ATOM
      1 C          64.3520   90.7849   13.1506 C.3     1  UNL1        0.2337
      2 N          65.1442   91.7010   12.2656 N.ar    1  UNL1       -0.2923
      3 C          66.4624   92.3904   12.4580 C.ar    1  UNL1        0.1796
      4 N          66.7547   93.1854   11.2201 N.ar    1  UNL1       -0.2226
      5 C          65.6172   92.9874   10.2626 C.ar    1  UNL1        0.1148
      6 C          64.6218   92.0699   10.9087 C.ar    1  UNL1        0.0770
      7 C          63.3073   91.5228   10.4368 C.3     1  UNL1        0.1409
      8 N          62.5152   90.6067   11.3218 N.3     1  UNL1       -0.1490
      9 S          63.0374   90.2378   12.6786 S.O2    1  UNL1        0.0628
     10 O          61.7488   89.4698   12.6779 O.2     1  UNL1       -0.1555
     11 O          63.1123   89.6021   14.0353 O.2     1  UNL1       -0.1555
     12 C          61.2006   90.0595   10.8499 C.3     1  UNL1        0.1019
     13 C          59.9192   90.7059   11.2862 C.3     1  UNL1        0.0240
     14 C          61.1674   88.8662    9.9418 C.ar    1  UNL1       -0.0061
     15 C          62.2548   87.8357   10.0174 C.ar    1  UNL1       -0.0021
     16 C          62.2217   86.6424    9.1093 C.ar    1  UNL1        0.0111
     17 C          61.1011   86.4795    8.1254 C.ar    1  UNL1        0.0577
     18 CL         61.0680   85.2861    7.2173 Cl      1  UNL1       -0.0822
     19 C          60.0138   87.5099    8.0498 C.ar    1  UNL1        0.0111
     20 C          60.0470   88.7033    8.9580 C.ar    1  UNL1       -0.0021
     21 C          64.8743   90.4159   14.5075 C.3     1  UNL1        0.0490
     22 C          63.8327   91.6076   16.5677 C.3     1  UNL1        0.0001
     23 C          64.9572   91.4541   15.5870 C.3     1  UNL1        0.0037
     24 C          66.1645   92.3387   15.6857 C.3     1  UNL1        0.0001
@<TRIPOS>BOND
     1    22    23    1
     2    23    24    1
     3    23    21    1
     4    21     1    1
     5     1     2    1
     6     2     3   ar
     7     3     4   ar
     8     4     5   ar
     9     5     6   ar
    10     6     7    1
    11     7     8    1
    12     8    12    1
    13    12    13    1
    14    12    14    1
    15    14    15   ar
    16    15    16   ar
    17    16    17   ar
    18    17    18    1
    19    17    19   ar
    20    19    20   ar
    21     8     9    1
    22     9    10    2
    23     9    11    2
    24     9     1    1
    25     6     2   ar
    26    20    14   ar
@<TRIPOS>MOLECULE
*****
 24 26 0 0 0
SMALL
GASTEIGER

@<TRIPOS>ATOM
      1 C          61.9454   86.7775   10.8875 C.3     1  UNL1        0.2337
      2 N          61.0349   87.3781    9.8578 N.ar    1  UNL1       -0.2923
      3 C          60.2147   86.7635    8.7625 C.ar    1  UNL1        0.1796
      4 N          59.4984   87.8684    8.0442 N.ar    1  UNL1       -0.2226
      5 C          59.8758   89.1658    8.6955 C.ar    1  UNL1        0.1148
      6 C          60.8254   88.8628    9.8164 C.ar    1  UNL1        0.0770
      7 C          61.5264   89.7470   10.8048 C.3     1  UNL1        0.1409
      8 N          62.4369   89.1464   11.8345 N.3     1  UNL1       -0.1490
      9 S          62.6464   87.6618   11.8759 S.O2    1  UNL1        0.0628
     10 O          63.5263   88.0808   13.0161 O.2     1  UNL1       -0.1555
     11 O          63.1615   86.3225   12.3132 O.2     1  UNL1       -0.1555
     12 C          63.1379   90.0307   12.8228 C.3     1  UNL1        0.1019
     13 C          62.8977   89.8506   14.2924 C.3     1  UNL1        0.0240
     14 C          64.0790   91.0948   12.3415 C.ar    1  UNL1       -0.0061
     15 C          64.0230   91.5566   10.9154 C.ar    1  UNL1       -0.0021
     16 C          64.9641   92.6207   10.4341 C.ar    1  UNL1        0.0111
     17 C          65.9614   93.2233   11.3789 C.ar    1  UNL1        0.0577
     18 CL         66.9026   94.2875   10.8975 Cl      1  UNL1       -0.0822
     19 C          66.0175   92.7615   12.8049 C.ar    1  UNL1        0.0111
     20 C          65.0763   91.6973   13.2862 C.ar    1  UNL1       -0.0021
     21 C          62.1549   85.2927   10.9290 C.3     1  UNL1        0.0490
     22 C          63.1792   85.1799    8.5441 C.3     1  UNL1        0.0001
     23 C          63.0698   84.6365    9.9379 C.3     1  UNL1        0.0037
     24 C          63.8752   83.4368   10.3405 C.3     1  UNL1        0.0001
@<TRIPOS>BOND
     1    22    23    1
     2    23    24    1
     3    23    21    1
     4    21     1    1
     5     1     2    1
     6     2     3   ar
     7     3     4   ar
     8     4     5   ar
     9     5     6   ar
    10     6     7    1
    11     7     8    1
    12     8    12    1
    13    12    13    1
    14    12    14    1
    15    14    15   ar
    16    15    16   ar
    17    16    17   ar
    18    17    18    1
    19    17    19   ar
    20    19    20   ar
    21     8     9    1
    22     9    10    2
    23     9    11    2
    24     9     1    1
    25     6     2   ar
    26    20    14   ar
@<TRIPOS>MOLECULE
*****
 24 26 0 0 0
SMALL
GASTEIGER

@<TRIPOS>ATOM
      1 C          63.7844   87.8380   13.4824 C.3     1  UNL1        0.2337
      2 N          64.0526   86.4462   13.9733 N.ar    1  UNL1       -0.2923
      3 C          64.9365   85.9199   15.0649 C.ar    1  UNL1        0.1796
      4 N          64.7959   84.4268   15.0957 N.ar    1  UNL1       -0.2226
      5 C          63.8252   84.0304   14.0231 C.ar    1  UNL1        0.1148
      6 C          63.3658   85.2785   13.3294 C.ar    1  UNL1        0.0770
      7 C          62.4108   85.5025   12.1946 C.3     1  UNL1        0.1409
      8 N          62.1426   86.8943   11.7037 N.3     1  UNL1       -0.1490
      9 S          62.8294   88.0620   12.3475 S.O2    1  UNL1        0.0628
     10 O          62.0146   88.7780   11.3114 O.2     1  UNL1       -0.1555
     11 O          63.2333   89.4785   12.6316 O.2     1  UNL1       -0.1555
     12 C          61.1876   87.1183   10.5688 C.3     1  UNL1        0.1019
     13 C          60.0496   88.0829   10.7256 C.3     1  UNL1        0.0240
     14 C          61.3705   86.3777    9.2774 C.ar    1  UNL1       -0.0061
     15 C          62.7016   85.7731    8.9415 C.ar    1  UNL1       -0.0021
     16 C          62.8845   85.0325    7.6500 C.ar    1  UNL1        0.0111
     17 C          61.7363   84.8964    6.6943 C.ar    1  UNL1        0.0577
     18 CL         61.9192   84.1558    5.4028 Cl      1  UNL1       -0.0822
     19 C          60.4052   85.5010    7.0302 C.ar    1  UNL1        0.0111
     20 C          60.2224   86.2416    8.3217 C.ar    1  UNL1       -0.0021
     21 C          64.4712   89.0059   14.1263 C.3     1  UNL1        0.0490
     22 C          64.1013   91.0641   15.6679 C.3     1  UNL1        0.0001
     23 C          63.9142   89.6031   15.3845 C.3     1  UNL1        0.0037
     24 C          63.1702   88.7393   16.3593 C.3     1  UNL1        0.0001
@<TRIPOS>BOND
     1    22    23    1
     2    23    24    1
     3    23    21    1
     4    21     1    1
     5     1     2    1
     6     2     3   ar
     7     3     4   ar
     8     4     5   ar
     9     5     6   ar
    10     6     7    1
    11     7     8    1
    12     8    12    1
    13    12    13    1
    14    12    14    1
    15    14    15   ar
    16    15    16   ar
    17    16    17   ar
    18    17    18    1
    19    17    19   ar
    20    19    20   ar
    21     8     9    1
    22     9    10    2
    23     9    11    2
    24     9     1    1
    25     6     2   ar
    26    20    14   ar
@<TRIPOS>MOLECULE
*****
 24 26 0 0 0
SMALL
GASTEIGER

@<TRIPOS>ATOM
      1 C          64.2237   91.7056   11.4182 C.3     1  UNL1        0.2337
      2 N          64.7314   91.5971   12.8254 N.ar    1  UNL1       -0.2923
      3 C          65.6963   92.4343   13.6116 C.ar    1  UNL1        0.1796
      4 N          65.8181   91.8372   14.9823 N.ar    1  UNL1       -0.2226
      5 C          64.9285   90.6310   15.0432 C.ar    1  UNL1        0.1148
      6 C          64.2569   90.4826   13.7101 C.ar    1  UNL1        0.0770
      7 C          63.2746   89.4766   13.1876 C.3     1  UNL1        0.1409
      8 N          62.7668   89.5851   11.7804 N.3     1  UNL1       -0.1490
      9 S          63.2413   90.6996   10.8957 S.O2    1  UNL1        0.0628
     10 O          62.3116   89.9958    9.9520 O.2     1  UNL1       -0.1555
     11 O          63.3930   91.5697    9.6832 O.2     1  UNL1       -0.1555
     12 C          61.7845   88.5791   11.2579 C.3     1  UNL1        0.1019
     13 C          60.3427   88.9567   11.0886 C.3     1  UNL1        0.0240
     14 C          62.2439   87.1956   10.9047 C.ar    1  UNL1       -0.0061
     15 C          62.3728   86.7927    9.4655 C.ar    1  UNL1       -0.0021
     16 C          62.8323   85.4092    9.1123 C.ar    1  UNL1        0.0111
     17 C          63.1628   84.4286   10.1982 C.ar    1  UNL1        0.0577
     18 CL         63.6223   83.0450    9.8450 Cl      1  UNL1       -0.0822
     19 C          63.0339   84.8315   11.6374 C.ar    1  UNL1        0.0111
     20 C          62.5744   86.2150   11.9905 C.ar    1  UNL1       -0.0021
     21 C          64.6981   92.8201   10.5334 C.3     1  UNL1        0.0490
     22 C          66.4420   94.6930   10.9817 C.3     1  UNL1        0.0001
     23 C          66.1252   93.2768   10.6024 C.3     1  UNL1        0.0037
     24 C          67.2356   92.3172   10.2921 C.3     1  UNL1        0.0001
@<TRIPOS>BOND
     1    22    23    1
     2    23    24    1
     3    23    21    1
     4    21     1    1
     5     1     2    1
     6     2     3   ar
     7     3     4   ar
     8     4     5   ar
     9     5     6   ar
    10     6     7    1
    11     7     8    1
    12     8    12    1
    13    12    13    1
    14    12    14    1
    15    14    15   ar
    16    15    16   ar
    17    16    17   ar
    18    17    18    1
    19    17    19   ar
    20    19    20   ar
    21     8     9    1
    22     9    10    2
    23     9    11    2
    24     9     1    1
    25     6     2   ar
    26    20    14   ar
@<TRIPOS>MOLECULE
*****
 24 26 0 0 0
SMALL
GASTEIGER

@<TRIPOS>ATOM
      1 C          62.7142   85.8742   11.6730 C.3     1  UNL1        0.2337
      2 N          63.5214   85.5138   12.8848 N.ar    1  UNL1       -0.2923
      3 C          64.0343   84.1996   13.3946 C.ar    1  UNL1        0.1796
      4 N          64.7865   84.4575   14.6664 N.ar    1  UNL1       -0.2226
      5 C          64.7386   85.9310   14.9427 C.ar    1  UNL1        0.1148
      6 C          63.9567   86.5839   13.8416 C.ar    1  UNL1        0.0770
      7 C          63.5848   88.0145   13.5866 C.3     1  UNL1        0.1409
      8 N          62.7776   88.3750   12.3748 N.3     1  UNL1       -0.1490
      9 S          62.3424   87.3049   11.4180 S.O2    1  UNL1        0.0628
     10 O          61.7475   88.5092   10.7501 O.2     1  UNL1       -0.1555
     11 O          61.7005   86.6530   10.2292 O.2     1  UNL1       -0.1555
     12 C          62.4057   89.8056   12.1198 C.3     1  UNL1        0.1019
     13 C          60.9613   90.2028   12.0433 C.3     1  UNL1        0.0240
     14 C          63.4782   90.8390   11.9413 C.ar    1  UNL1       -0.0061
     15 C          64.3164   91.2600   13.1119 C.ar    1  UNL1       -0.0021
     16 C          65.3888   92.2933   12.9334 C.ar    1  UNL1        0.0111
     17 C          65.6232   92.9057   11.5842 C.ar    1  UNL1        0.0577
     18 CL         66.6957   93.9391   11.4057 Cl      1  UNL1       -0.0822
     19 C          64.7851   92.4848   10.4136 C.ar    1  UNL1        0.0111
     20 C          63.7126   91.4514   10.5922 C.ar    1  UNL1       -0.0021
     21 C          62.2789   84.8042   10.7162 C.3     1  UNL1        0.0490
     22 C          63.3262   84.7952    8.3386 C.3     1  UNL1        0.0001
     23 C          63.2563   84.2376    9.7294 C.3     1  UNL1        0.0037
     24 C          64.1637   83.1136   10.1333 C.3     1  UNL1        0.0001
@<TRIPOS>BOND
     1    22    23    1
     2    23    24    1
     3    23    21    1
     4    21     1    1
     5     1     2    1
     6     2     3   ar
     7     3     4   ar
     8     4     5   ar
     9     5     6   ar
    10     6     7    1
    11     7     8    1
    12     8    12    1
    13    12    13    1
    14    12    14    1
    15    14    15   ar
    16    15    16   ar
    17    16    17   ar
    18    17    18    1
    19    17    19   ar
    20    19    20   ar
    21     8     9    1
    22     9    10    2
    23     9    11    2
    24     9     1    1
    25     6     2   ar
    26    20    14   ar
@<TRIPOS>MOLECULE
*****
 24 26 0 0 0
SMALL
GASTEIGER

@<TRIPOS>ATOM
      1 C          63.5456   86.2241   13.0944 C.3     1  UNL1        0.2337
      2 N          62.6883   86.2197   11.8636 N.ar    1  UNL1       -0.2923
      3 C          62.1478   85.1028   11.0209 C.ar    1  UNL1        0.1796
      4 N          61.3464   85.7085    9.9070 N.ar    1  UNL1       -0.2226
      5 C          61.3915   87.1999   10.0613 C.ar    1  UNL1        0.1148
      6 C          62.2209   87.5159   11.2706 C.ar    1  UNL1        0.0770
      7 C          62.6109   88.8163   11.9084 C.3     1  UNL1        0.1409
      8 N          63.4682   88.8206   13.1392 N.3     1  UNL1       -0.1490
      9 S          63.9356   87.5246   13.7322 S.O2    1  UNL1        0.0628
     10 O          64.5637   88.4916   14.6917 O.2     1  UNL1       -0.1555
     11 O          64.6211   86.5643   14.6585 O.2     1  UNL1       -0.1555
     12 C          63.8582   90.1211   13.7769 C.3     1  UNL1        0.1019
     13 C          63.4833   90.3995   15.2024 C.3     1  UNL1        0.0240
     14 C          64.6229   91.1431   12.9893 C.ar    1  UNL1       -0.0061
     15 C          64.1830   91.5034   11.6012 C.ar    1  UNL1       -0.0021
     16 C          64.9477   92.5254   10.8135 C.ar    1  UNL1        0.0111
     17 C          66.1526   93.1873   11.4138 C.ar    1  UNL1        0.0577
     18 CL         66.9173   94.2094   10.6261 Cl      1  UNL1       -0.0822
     19 C          66.5926   92.8271   12.8019 C.ar    1  UNL1        0.0111
     20 C          65.8277   91.8050   13.5896 C.ar    1  UNL1       -0.0021
     21 C          64.0130   84.9280   13.6875 C.3     1  UNL1        0.0490
     22 C          62.0963   84.2786   15.3167 C.3     1  UNL1        0.0001
     23 C          63.0128   83.9259   14.1829 C.3     1  UNL1        0.0037
     24 C          62.9291   82.5712   13.5444 C.3     1  UNL1        0.0001
@<TRIPOS>BOND
     1    22    23    1
     2    23    24    1
     3    23    21    1
     4    21     1    1
     5     1     2    1
     6     2     3   ar
     7     3     4   ar
     8     4     5   ar
     9     5     6   ar
    10     6     7    1
    11     7     8    1
    12     8    12    1
    13    12    13    1
    14    12    14    1
    15    14    15   ar
    16    15    16   ar
    17    16    17   ar
    18    17    18    1
    19    17    19   ar
    20    19    20   ar
    21     8     9    1
    22     9    10    2
    23     9    11    2
    24     9     1    1
    25     6     2   ar
    26    20    14   ar
@<TRIPOS>MOLECULE
*****
 24 26 0 0 0
SMALL
GASTEIGER

@<TRIPOS>ATOM
      1 C          65.2636   92.5916   11.8098 C.3     1  UNL1        0.2337
      2 N          65.8586   92.7591   13.1765 N.ar    1  UNL1       -0.2923
      3 C          66.8757   93.7198   13.7174 C.ar    1  UNL1        0.1796
      4 N          67.0805   93.4085   15.1704 N.ar    1  UNL1       -0.2226
      5 C          66.1899   92.2555   15.5275 C.ar    1  UNL1        0.1148
      6 C          65.4347   91.8542   14.2951 C.ar    1  UNL1        0.0770
      7 C          64.4159   90.7816   14.0471 C.3     1  UNL1        0.1409
      8 N          63.8209   90.6140   12.6804 N.3     1  UNL1       -0.1490
      9 S          64.2447   91.5189   11.5618 S.O2    1  UNL1        0.0628
     10 O          63.2534   90.6566   10.8379 O.2     1  UNL1       -0.1555
     11 O          64.3243   92.1245   10.1917 O.2     1  UNL1       -0.1555
     12 C          62.8020   89.5414   12.4324 C.3     1  UNL1        0.1019
     13 C          61.4521   89.9012   11.8862 C.3     1  UNL1        0.0240
     14 C          63.1330   88.1092   12.7305 C.ar    1  UNL1       -0.0061
     15 C          63.9658   87.7658   13.9300 C.ar    1  UNL1       -0.0021
     16 C          64.2969   86.3336   14.2282 C.ar    1  UNL1        0.0111
     17 C          63.7951   85.2445   13.3269 C.ar    1  UNL1        0.0577
     18 CL         64.1261   83.8122   13.6251 Cl      1  UNL1       -0.0822
     19 C          62.9623   85.5877   12.1274 C.ar    1  UNL1        0.0111
     20 C          62.6313   87.0201   11.8293 C.ar    1  UNL1       -0.0021
     21 C          65.6874   93.4965   10.6911 C.3     1  UNL1        0.0490
     22 C          67.6801   94.5638    9.4106 C.3     1  UNL1        0.0001
     23 C          67.0739   93.3942   10.1279 C.3     1  UNL1        0.0037
     24 C          67.8541   92.1224   10.2821 C.3     1  UNL1        0.0001
@<TRIPOS>BOND
     1    22    23    1
     2    23    24    1
     3    23    21    1
     4    21     1    1
     5     1     2    1
     6     2     3   ar
     7     3     4   ar
     8     4     5   ar
     9     5     6   ar
    10     6     7    1
    11     7     8    1
    12     8    12    1
    13    12    13    1
    14    12    14    1
    15    14    15   ar
    16    15    16   ar
    17    16    17   ar
    18    17    18    1
    19    17    19   ar
    20    19    20   ar
    21     8     9    1
    22     9    10    2
    23     9    11    2
    24     9     1    1
    25     6     2   ar
    26    20    14   ar
@<TRIPOS>MOLECULE
*****
 24 26 0 0 0
SMALL
GASTEIGER

@<TRIPOS>ATOM
      1 C          62.9357   89.1485   12.3562 C.3     1  UNL1        0.2337
      2 N          62.1468   88.7484   11.1449 N.ar    1  UNL1       -0.2923
      3 C          61.4506   89.5550   10.0891 C.ar    1  UNL1        0.1796
      4 N          60.8220   88.6015    9.1166 N.ar    1  UNL1       -0.2226
      5 C          61.1297   87.2056    9.5714 C.ar    1  UNL1        0.1148
      6 C          61.9485   87.2964   10.8249 C.ar    1  UNL1        0.0770
      7 C          62.5391   86.2445   11.7164 C.3     1  UNL1        0.1409
      8 N          63.3281   86.6447   12.9278 N.3     1  UNL1       -0.1490
      9 S          63.5264   88.0966   13.2477 S.O2    1  UNL1        0.0628
     10 O          64.2764   87.4739   14.3878 O.2     1  UNL1       -0.1555
     11 O          63.9851   89.3324   13.9636 O.2     1  UNL1       -0.1555
     12 C          63.9187   85.5927   13.8192 C.3     1  UNL1        0.1019
     13 C          64.9288   85.9731   14.8608 C.3     1  UNL1        0.0240
     14 C          63.4992   84.1605   13.6691 C.ar    1  UNL1       -0.0061
     15 C          64.1700   83.2851   12.6522 C.ar    1  UNL1       -0.0021
     16 C          63.7505   81.8529   12.5020 C.ar    1  UNL1        0.0111
     17 C          62.6602   81.2958   13.3688 C.ar    1  UNL1        0.0577
     18 CL         62.2408   79.8635   13.2186 Cl      1  UNL1       -0.0822
     19 C          61.9895   82.1711   14.3856 C.ar    1  UNL1        0.0111
     20 C          62.4090   83.6034   14.5357 C.ar    1  UNL1       -0.0021
     21 C          63.1341   90.6006   12.6763 C.3     1  UNL1        0.0490
     22 C          63.8794   91.6421   10.4159 C.3     1  UNL1        0.0001
     23 C          64.1089   91.4174   11.8811 C.3     1  UNL1        0.0037
     24 C          65.3133   92.0096   12.5511 C.3     1  UNL1        0.0001
@<TRIPOS>BOND
     1    22    23    1
     2    23    24    1
     3    23    21    1
     4    21     1    1
     5     1     2    1
     6     2     3   ar
     7     3     4   ar
     8     4     5   ar
     9     5     6   ar
    10     6     7    1
    11     7     8    1
    12     8    12    1
    13    12    13    1
    14    12    14    1
    15    14    15   ar
    16    15    16   ar
    17    16    17   ar
    18    17    18    1
    19    17    19   ar
    20    19    20   ar
    21     8     9    1
    22     9    10    2
    23     9    11    2
    24     9     1    1
    25     6     2   ar
    26    20    14   ar
@<TRIPOS>MOLECULE
*****
 24 26 0 0 0
SMALL
GASTEIGER

@<TRIPOS>ATOM
      1 C          61.6131   86.2499    9.8494 C.3     1  UNL1        0.2337
      2 N          62.2999   85.4051   10.8812 N.ar    1  UNL1       -0.2923
      3 C          62.6010   83.9367   10.9375 C.ar    1  UNL1        0.1796
      4 N          63.3151   83.6592   12.2271 N.ar    1  UNL1       -0.2226
      5 C          63.4554   84.9561   12.9677 C.ar    1  UNL1        0.1148
      6 C          62.8279   86.0351   12.1359 C.ar    1  UNL1        0.0770
      7 C          62.6691   87.5099   12.3589 C.3     1  UNL1        0.1409
      8 N          61.9823   88.3547   11.3271 N.3     1  UNL1       -0.1490
      9 S          61.4543   87.7248   10.0725 S.O2    1  UNL1        0.0628
     10 O          61.0651   89.1531    9.8304 O.2     1  UNL1       -0.1555
     11 O          60.7911   87.5908    8.7336 O.2     1  UNL1       -0.1555
     12 C          61.8235   89.8296   11.5501 C.3     1  UNL1        0.1019
     13 C          60.4524   90.4309   11.6416 C.3     1  UNL1        0.0240
     14 C          63.0358   90.7030   11.6816 C.ar    1  UNL1       -0.0061
     15 C          63.7181   90.8441   13.0100 C.ar    1  UNL1       -0.0021
     16 C          64.9304   91.7175   13.1415 C.ar    1  UNL1        0.0111
     17 C          65.4605   92.4500   11.9446 C.ar    1  UNL1        0.0577
     18 CL         66.6728   93.3235   12.0761 Cl      1  UNL1       -0.0822
     19 C          64.7782   92.3090   10.6162 C.ar    1  UNL1        0.0111
     20 C          63.5659   91.4355   10.4848 C.ar    1  UNL1       -0.0021
     21 C          61.0850   85.6200    8.5947 C.3     1  UNL1        0.0490
     22 C          61.5085   84.5418    6.2692 C.3     1  UNL1        0.0001
     23 C          62.0366   85.1206    7.5483 C.3     1  UNL1        0.0037
     24 C          63.5163   85.1999    7.7810 C.3     1  UNL1        0.0001
@<TRIPOS>BOND
     1    22    23    1
     2    23    24    1
     3    23    21    1
     4    21     1    1
     5     1     2    1
     6     2     3   ar
     7     3     4   ar
     8     4     5   ar
     9     5     6   ar
    10     6     7    1
    11     7     8    1
    12     8    12    1
    13    12    13    1
    14    12    14    1
    15    14    15   ar
    16    15    16   ar
    17    16    17   ar
    18    17    18    1
    19    17    19   ar
    20    19    20   ar
    21     8     9    1
    22     9    10    2
    23     9    11    2
    24     9     1    1
    25     6     2   ar
    26    20    14   ar
