@<TRIPOS>MOLECULE
*****
 35 38 0 0 0
SMALL
GASTEIGER

@<TRIPOS>ATOM
      1 C          63.2299   85.3730   12.7649 C.3     1  UNL1        0.3254
      2 F          62.1802   84.4498   12.2210 F       1  UNL1       -0.1949
      3 F          64.1444   86.5253   13.0578 F       1  UNL1       -0.1949
      4 C          62.5589   86.1783   11.6919 C.ar    1  UNL1        0.1218
      5 C          61.9029   85.4861   10.5341 C.ar    1  UNL1        0.0208
      6 C          61.2319   86.2914    9.4611 C.ar    1  UNL1        0.0112
      7 C          61.2168   87.7889    9.5460 C.ar    1  UNL1        0.0611
      8 C          61.8728   88.4811   10.7039 C.ar    1  UNL1        0.1068
      9 N          62.5438   87.6758   11.7768 N.ar    1  UNL1       -0.2421
     10 C          60.5458   88.5942    8.4731 C.1     1  UNL1       -0.0582
     11 C          59.8747   89.3995    7.4002 C.1     1  UNL1       -0.0596
     12 C          59.2037   90.2048    6.3272 C.ar    1  UNL1        0.0442
     13 C          57.7096   90.1826    6.1965 C.ar    1  UNL1        0.0084
     14 C          57.0386   90.9879    5.1235 C.ar    1  UNL1        0.0029
     15 C          57.8617   91.8153    4.1813 C.ar    1  UNL1        0.0297
     16 C          59.3558   91.8375    4.3120 C.ar    1  UNL1        0.1408
     17 F          60.1789   92.6649    3.3697 F       1  UNL1       -0.2042
     18 C          60.0268   91.0322    5.3849 C.ar    1  UNL1        0.0379
     19 O          64.5719   83.7624   14.9108 O.3     1  UNL1       -0.3755
     20 C          63.9009   84.5677   13.8378 C.3     1  UNL1        0.1932
     21 H          65.2733   83.2201   14.5171 H       1  UNL1        0.2110
     22 C          63.5952   83.3078   13.0834 C.ar    1  UNL1        0.0368
     23 C          64.2856   83.0268   11.7817 C.ar    1  UNL1        0.0028
     24 C          63.9800   81.7669   11.0273 C.ar    1  UNL1        0.0295
     25 C          62.9839   80.7880   11.5746 C.ar    1  UNL1        0.1424
     26 F          62.6782   79.5280   10.8202 F       1  UNL1       -0.2041
     27 C          62.2935   81.0689   12.8763 C.ar    1  UNL1        0.0590
     28 C          62.5992   82.3288   13.6307 C.ar    1  UNL1        0.1408
     29 F          61.9088   82.6098   14.9324 F       1  UNL1       -0.2043
     30 C          64.2066   85.8276   14.5923 C.3     1  UNL1        0.1679
     31 N          63.4152   86.1792   15.8170 N.ar    1  UNL1       -0.2078
     32 C          63.4509   87.4912   16.5433 C.ar    1  UNL1        0.2216
     33 N          62.5069   87.4034   17.7056 N.ar    1  UNL1       -0.1048
     34 N          61.8876   86.0372   17.6977 N.ar    1  UNL1       -0.0226
     35 N          62.4490   85.2807   16.5305 N.ar    1  UNL1       -0.0428
@<TRIPOS>BOND
     1    19    20    1
     2    20    30    1
     3    30    31    1
     4    31    32   ar
     5    32    33   ar
     6    33    34   ar
     7    34    35   ar
     8    20    22    1
     9    22    23   ar
    10    23    24   ar
    11    24    25   ar
    12    25    26    1
    13    25    27   ar
    14    27    28   ar
    15    28    29    1
    16    20     1    1
    17     1     2    1
    18     1     3    1
    19     1     4    1
    20     4     5   ar
    21     5     6   ar
    22     6     7   ar
    23     7    10    1
    24    10    11    3
    25    11    12    1
    26    12    13   ar
    27    13    14   ar
    28    14    15   ar
    29    15    16   ar
    30    16    17    1
    31    16    18   ar
    32     7     8   ar
    33     8     9   ar
    34    35    31   ar
    35    28    22   ar
    36     9     4   ar
    37    18    12   ar
    38    19    21    1
@<TRIPOS>MOLECULE
*****
 35 38 0 0 0
SMALL
GASTEIGER

@<TRIPOS>ATOM
      1 C          63.3356   85.0977   12.9757 C.3     1  UNL1        0.3254
      2 F          62.1944   84.2434   12.5087 F       1  UNL1       -0.1949
      3 F          64.3494   86.1824   13.1890 F       1  UNL1       -0.1949
      4 C          62.6848   85.9172   11.9010 C.ar    1  UNL1        0.1218
      5 C          62.0182   85.2392   10.7409 C.ar    1  UNL1        0.0208
      6 C          61.3674   86.0587    9.6661 C.ar    1  UNL1        0.0112
      7 C          61.3833   87.5562    9.7516 C.ar    1  UNL1        0.0611
      8 C          62.0500   88.2342   10.9118 C.ar    1  UNL1        0.1068
      9 N          62.7007   87.4147   11.9864 N.ar    1  UNL1       -0.2421
     10 C          60.7326   88.3757    8.6769 C.1     1  UNL1       -0.0582
     11 C          60.0819   89.1952    7.6023 C.1     1  UNL1       -0.0596
     12 C          59.4311   90.0148    6.5276 C.ar    1  UNL1        0.0442
     13 C          60.2742   90.8247    5.5878 C.ar    1  UNL1        0.0084
     14 C          59.6235   91.6442    4.5132 C.ar    1  UNL1        0.0029
     15 C          58.1296   91.6539    4.3784 C.ar    1  UNL1        0.0297
     16 C          57.2864   90.8440    5.3182 C.ar    1  UNL1        0.1408
     17 F          55.7926   90.8537    5.1833 F       1  UNL1       -0.2042
     18 C          57.9372   90.0245    6.3928 C.ar    1  UNL1        0.0379
     19 O          64.6370   83.4587   15.1250 O.3     1  UNL1       -0.3755
     20 C          63.9863   84.2782   14.0504 C.3     1  UNL1        0.1932
     21 H          65.3031   82.8757   14.7284 H       1  UNL1        0.2110
     22 C          63.6045   83.0224   13.3240 C.ar    1  UNL1        0.0368
     23 C          62.6150   82.0745   13.9341 C.ar    1  UNL1        0.0028
     24 C          62.2332   80.8189   13.2079 C.ar    1  UNL1        0.0295
     25 C          62.8409   80.5111   11.8715 C.ar    1  UNL1        0.1424
     26 F          62.4591   79.2554   11.1452 F       1  UNL1       -0.2041
     27 C          63.8304   81.4591   11.2614 C.ar    1  UNL1        0.0590
     28 C          64.2122   82.7147   11.9877 C.ar    1  UNL1        0.1408
     29 F          65.2018   83.6627   11.3775 F       1  UNL1       -0.2043
     30 C          64.3681   85.5338   14.7767 C.3     1  UNL1        0.1679
     31 N          63.4435   86.1167   15.8039 N.ar    1  UNL1       -0.2078
     32 C          62.4137   85.3629   16.5922 C.ar    1  UNL1        0.2216
     33 N          61.7200   86.3361   17.4988 N.ar    1  UNL1       -0.1048
     34 N          62.3211   87.6913   17.2707 N.ar    1  UNL1       -0.0226
     35 N          63.3862   87.5557   16.2233 N.ar    1  UNL1       -0.0428
@<TRIPOS>BOND
     1    19    20    1
     2    20    30    1
     3    30    31    1
     4    31    32   ar
     5    32    33   ar
     6    33    34   ar
     7    34    35   ar
     8    20    22    1
     9    22    23   ar
    10    23    24   ar
    11    24    25   ar
    12    25    26    1
    13    25    27   ar
    14    27    28   ar
    15    28    29    1
    16    20     1    1
    17     1     2    1
    18     1     3    1
    19     1     4    1
    20     4     5   ar
    21     5     6   ar
    22     6     7   ar
    23     7    10    1
    24    10    11    3
    25    11    12    1
    26    12    13   ar
    27    13    14   ar
    28    14    15   ar
    29    15    16   ar
    30    16    17    1
    31    16    18   ar
    32     7     8   ar
    33     8     9   ar
    34    35    31   ar
    35    28    22   ar
    36     9     4   ar
    37    18    12   ar
    38    19    21    1
@<TRIPOS>MOLECULE
*****
 35 38 0 0 0
SMALL
GASTEIGER

@<TRIPOS>ATOM
      1 C          63.0956   84.7297   12.3363 C.3     1  UNL1        0.3254
      2 F          61.8450   85.1881   13.0263 F       1  UNL1       -0.1949
      3 F          64.2189   84.4798   11.3742 F       1  UNL1       -0.1949
      4 C          62.4316   85.6217   11.3295 C.ar    1  UNL1        0.1218
      5 C          62.6001   85.3535    9.8633 C.ar    1  UNL1        0.0208
      6 C          61.9362   86.2455    8.8565 C.ar    1  UNL1        0.0112
      7 C          61.1037   87.4057    9.3160 C.ar    1  UNL1        0.0611
      8 C          60.9352   87.6738   10.7822 C.ar    1  UNL1        0.1068
      9 N          61.5992   86.7819   11.7889 N.ar    1  UNL1       -0.2421
     10 C          60.4398   88.2976    8.3092 C.1     1  UNL1       -0.0582
     11 C          59.7758   89.1896    7.3025 C.1     1  UNL1       -0.0596
     12 C          59.1118   90.0816    6.2958 C.ar    1  UNL1        0.0442
     13 C          57.6177   90.0817    6.1639 C.ar    1  UNL1        0.0084
     14 C          56.9537   90.9737    5.1572 C.ar    1  UNL1        0.0029
     15 C          57.7839   91.8656    4.2824 C.ar    1  UNL1        0.0297
     16 C          59.2781   91.8655    4.4143 C.ar    1  UNL1        0.1408
     17 F          60.1083   92.7575    3.5396 F       1  UNL1       -0.2042
     18 C          59.9420   90.9735    5.4210 C.ar    1  UNL1        0.0379
     19 O          64.4234   82.9459   14.3499 O.3     1  UNL1       -0.3755
     20 C          63.7595   83.8378   13.3431 C.3     1  UNL1        0.1932
     21 H          63.8385   82.8306   15.1151 H       1  UNL1        0.2110
     22 C          63.6069   84.9034   14.3878 C.ar    1  UNL1        0.0368
     23 C          64.3336   86.2073   14.2408 C.ar    1  UNL1        0.0028
     24 C          64.1810   87.2729   15.2854 C.ar    1  UNL1        0.0295
     25 C          63.3018   87.0345   16.4770 C.ar    1  UNL1        0.1424
     26 F          63.1492   88.1000   17.5218 F       1  UNL1       -0.2041
     27 C          62.5751   85.7305   16.6241 C.ar    1  UNL1        0.0590
     28 C          62.7277   84.6650   15.5794 C.ar    1  UNL1        0.1408
     29 F          62.0010   83.3610   15.7265 F       1  UNL1       -0.2043
     30 C          63.9121   82.7722   12.2985 C.3     1  UNL1        0.1679
     31 N          63.2361   81.4451   12.4765 N.ar    1  UNL1       -0.2078
     32 C          63.1273   80.3651   11.4413 C.ar    1  UNL1        0.2216
     33 N          62.3742   79.2174   12.0460 N.ar    1  UNL1       -0.1048
     34 N          62.0175   79.5881   13.4550 N.ar    1  UNL1       -0.0226
     35 N          62.5502   80.9649   13.7211 N.ar    1  UNL1       -0.0428
@<TRIPOS>BOND
     1    19    20    1
     2    20    30    1
     3    30    31    1
     4    31    32   ar
     5    32    33   ar
     6    33    34   ar
     7    34    35   ar
     8    20    22    1
     9    22    23   ar
    10    23    24   ar
    11    24    25   ar
    12    25    26    1
    13    25    27   ar
    14    27    28   ar
    15    28    29    1
    16    20     1    1
    17     1     2    1
    18     1     3    1
    19     1     4    1
    20     4     5   ar
    21     5     6   ar
    22     6     7   ar
    23     7    10    1
    24    10    11    3
    25    11    12    1
    26    12    13   ar
    27    13    14   ar
    28    14    15   ar
    29    15    16   ar
    30    16    17    1
    31    16    18   ar
    32     7     8   ar
    33     8     9   ar
    34    35    31   ar
    35    28    22   ar
    36     9     4   ar
    37    18    12   ar
    38    19    21    1
@<TRIPOS>MOLECULE
*****
 35 38 0 0 0
SMALL
GASTEIGER

@<TRIPOS>ATOM
      1 C          63.1196   84.7405   12.9384 C.3     1  UNL1        0.3254
      2 F          64.2188   84.9052   11.9309 F       1  UNL1       -0.1949
      3 F          61.8352   84.7870   13.7117 F       1  UNL1       -0.1949
      4 C          62.5116   85.6080   11.8763 C.ar    1  UNL1        0.1218
      5 C          61.9555   84.9879   10.6289 C.ar    1  UNL1        0.0208
      6 C          61.3475   85.8554    9.5668 C.ar    1  UNL1        0.0112
      7 C          61.2957   87.3430    9.7523 C.ar    1  UNL1        0.0611
      8 C          61.8518   87.9631   10.9999 C.ar    1  UNL1        0.1068
      9 N          62.4598   87.0956   12.0618 N.ar    1  UNL1       -0.2421
     10 C          60.6877   88.2105    8.6904 C.1     1  UNL1       -0.0582
     11 C          60.0797   89.0780    7.6285 C.1     1  UNL1       -0.0596
     12 C          59.4717   89.9456    6.5665 C.ar    1  UNL1        0.0442
     13 C          60.3542   90.7532    5.6616 C.ar    1  UNL1        0.0084
     14 C          59.7462   91.6207    4.5997 C.ar    1  UNL1        0.0029
     15 C          58.2556   91.6806    4.4427 C.ar    1  UNL1        0.0297
     16 C          57.3731   90.8730    5.3476 C.ar    1  UNL1        0.1408
     17 F          55.8826   90.9329    5.1906 F       1  UNL1       -0.2042
     18 C          57.9812   90.0055    6.4095 C.ar    1  UNL1        0.0379
     19 O          64.3356   83.0055   15.0622 O.3     1  UNL1       -0.3755
     20 C          63.7276   83.8730   14.0003 C.3     1  UNL1        0.1932
     21 H          63.6975   82.8803   15.7820 H       1  UNL1        0.2110
     22 C          63.4691   84.9413   15.0211 C.ar    1  UNL1        0.0368
     23 C          62.4360   84.7258   16.0870 C.ar    1  UNL1        0.0028
     24 C          62.1774   85.7941   17.1078 C.ar    1  UNL1        0.0295
     25 C          62.9519   87.0778   17.0626 C.ar    1  UNL1        0.1424
     26 F          62.6934   88.1461   18.0833 F       1  UNL1       -0.2041
     27 C          63.9851   87.2933   15.9966 C.ar    1  UNL1        0.0590
     28 C          64.2436   86.2250   14.9759 C.ar    1  UNL1        0.1408
     29 F          65.2767   86.4405   13.9099 F       1  UNL1       -0.2043
     30 C          63.9862   82.8047   12.9796 C.3     1  UNL1        0.1679
     31 N          63.2391   81.5058   13.0477 N.ar    1  UNL1       -0.2078
     32 C          63.0511   80.5366   11.9184 C.ar    1  UNL1        0.2216
     33 N          62.2446   79.3798   12.4297 N.ar    1  UNL1       -0.1048
     34 N          61.9342   79.6340   13.8751 N.ar    1  UNL1       -0.0226
     35 N          62.5488   80.9480   14.2570 N.ar    1  UNL1       -0.0428
@<TRIPOS>BOND
     1    19    20    1
     2    20    30    1
     3    30    31    1
     4    31    32   ar
     5    32    33   ar
     6    33    34   ar
     7    34    35   ar
     8    20    22    1
     9    22    23   ar
    10    23    24   ar
    11    24    25   ar
    12    25    26    1
    13    25    27   ar
    14    27    28   ar
    15    28    29    1
    16    20     1    1
    17     1     2    1
    18     1     3    1
    19     1     4    1
    20     4     5   ar
    21     5     6   ar
    22     6     7   ar
    23     7    10    1
    24    10    11    3
    25    11    12    1
    26    12    13   ar
    27    13    14   ar
    28    14    15   ar
    29    15    16   ar
    30    16    17    1
    31    16    18   ar
    32     7     8   ar
    33     8     9   ar
    34    35    31   ar
    35    28    22   ar
    36     9     4   ar
    37    18    12   ar
    38    19    21    1
