@<TRIPOS>MOLECULE
*****
 23 27 0 0 0
SMALL
GASTEIGER

@<TRIPOS>ATOM
      1 O          62.5008   85.9827   17.8409 O.3     1  UNL1       -0.3867
      2 C          63.0689   86.9743   16.8693 C.3     1  UNL1        0.0896
      3 C          63.8778   86.4988   15.6990 C.3     1  UNL1        0.0270
      4 C          64.4459   87.4903   14.7274 C.3     1  UNL1        0.0036
      5 C          64.2051   88.9575   14.9261 C.3     1  UNL1        0.0002
      6 C          63.3963   89.4331   16.0964 C.3     1  UNL1        0.0036
      7 C          62.8282   88.4415   17.0680 C.3     1  UNL1        0.0270
      8 C          63.5126   86.1532   16.2907 C.3     1  UNL1        0.0146
      9 C          64.1185   85.0316   15.5003 C.3     1  UNL1        0.0445
     10 C          64.6866   86.0232   14.5287 C.3     1  UNL1        0.0146
     11 C          63.3097   85.5072   16.6706 C.3     1  UNL1        0.0413
     12 H          62.0089   86.4528   18.5322 H       1  UNL1        0.2102
     13 N          64.3593   83.5644   15.3016 N.3     1  UNL1       -0.2944
     14 H          64.1973   83.1148   16.2027 H       1  UNL1        0.1235
     15 C          63.5577   82.8034   14.2876 C.3     1  UNL1        0.1186
     16 C          63.7604   83.0618   12.8240 C.ar    1  UNL1        0.1162
     17 C          63.0103   84.0598   11.9926 C.ar    1  UNL1        0.0550
     18 C          63.5351   83.9823   10.5896 C.ar    1  UNL1        0.1537
     19 O          64.6097   82.9363   10.5538 O.2     1  UNL1       -0.3581
     20 N          64.7490   82.3674   11.9347 N.ar    1  UNL1       -0.0804
     21 C          63.0676   84.8061    9.4266 C.3     1  UNL1        0.0602
     22 C          62.3019   85.9791    8.8898 C.3     1  UNL1        0.0081
     23 C          63.0233   85.0601    7.9489 C.3     1  UNL1        0.0081
@<TRIPOS>BOND
     1     1     2    1
     2     2     3    1
     3     3     4    1
     4     4     5    1
     5     5     6    1
     6     6     7    1
     7     6     8    1
     8     8     9    1
     9     9    13    1
    10    13    15    1
    11    15    16    1
    12    16    17   ar
    13    17    18   ar
    14    18    21    1
    15    21    22    1
    16    22    23    1
    17    18    19   ar
    18    19    20   ar
    19     9    10    1
    20     9    11    1
    21     7     2    1
    22    20    16   ar
    23    11     2    1
    24    10     4    1
    25    23    21    1
    26     1    12    1
    27    13    14    1
@<TRIPOS>MOLECULE
*****
 23 27 0 0 0
SMALL
GASTEIGER

@<TRIPOS>ATOM
      1 O          60.3538   90.4280    9.6814 O.3     1  UNL1       -0.3867
      2 C          60.4253   88.9851    9.2776 C.3     1  UNL1        0.0896
      3 C          61.3179   88.0401   10.0260 C.3     1  UNL1        0.0270
      4 C          61.3894   86.5973    9.6221 C.3     1  UNL1        0.0036
      5 C          60.5682   86.0995    8.4698 C.3     1  UNL1        0.0002
      6 C          59.6756   87.0444    7.7214 C.3     1  UNL1        0.0036
      7 C          59.6042   88.4872    8.1252 C.3     1  UNL1        0.0270
      8 C          61.1496   88.7961   10.0810 C.3     1  UNL1        0.0146
      9 C          62.1391   88.5379   11.1783 C.3     1  UNL1        0.0445
     10 C          62.2105   87.0951   10.7745 C.3     1  UNL1        0.0146
     11 C          61.2465   89.4829   10.4299 C.3     1  UNL1        0.0413
     12 H          59.7351   90.8964    9.0994 H       1  UNL1        0.2102
     13 N          62.9602   89.0358   12.3307 N.3     1  UNL1       -0.2944
     14 H          63.8340   88.5096   12.3186 H       1  UNL1        0.1235
     15 C          63.3298   90.4869   12.4167 C.3     1  UNL1        0.1186
     16 C          64.0596   91.0050   13.6204 C.ar    1  UNL1        0.1162
     17 C          65.4855   91.4692   13.6549 C.ar    1  UNL1        0.0550
     18 C          65.7988   91.9009   15.0568 C.ar    1  UNL1        0.1537
     19 O          64.5664   91.7035   15.8889 O.2     1  UNL1       -0.3581
     20 N          63.4915   91.1498   15.0012 N.ar    1  UNL1       -0.0804
     21 C          67.1135   92.4360   15.5416 C.3     1  UNL1        0.0602
     22 C          68.4622   92.2064   16.1569 C.3     1  UNL1        0.0081
     23 C          68.0421   93.5924   15.7662 C.3     1  UNL1        0.0081
@<TRIPOS>BOND
     1     1     2    1
     2     2     3    1
     3     3     4    1
     4     4     5    1
     5     5     6    1
     6     6     7    1
     7     6     8    1
     8     8     9    1
     9     9    13    1
    10    13    15    1
    11    15    16    1
    12    16    17   ar
    13    17    18   ar
    14    18    21    1
    15    21    22    1
    16    22    23    1
    17    18    19   ar
    18    19    20   ar
    19     9    10    1
    20     9    11    1
    21     7     2    1
    22    20    16   ar
    23    11     2    1
    24    10     4    1
    25    23    21    1
    26     1    12    1
    27    13    14    1
@<TRIPOS>MOLECULE
*****
 23 27 0 0 0
SMALL
GASTEIGER

@<TRIPOS>ATOM
      1 O          62.1476   81.2758   14.7725 O.3     1  UNL1       -0.3867
      2 C          62.6099   81.8657   13.4731 C.3     1  UNL1        0.0896
      3 C          62.8778   83.3381   13.3710 C.3     1  UNL1        0.0270
      4 C          63.3400   83.9279   12.0716 C.3     1  UNL1        0.0036
      5 C          63.5343   83.0454   10.8743 C.3     1  UNL1        0.0002
      6 C          63.2664   81.5731   10.9764 C.3     1  UNL1        0.0036
      7 C          62.8042   80.9833   12.2758 C.3     1  UNL1        0.0270
      8 C          62.6410   82.8610   13.9360 C.3     1  UNL1        0.0146
      9 C          62.6835   84.2205   14.5683 C.3     1  UNL1        0.0445
     10 C          63.1458   84.8104   13.2689 C.3     1  UNL1        0.0146
     11 C          62.4156   82.7482   14.6703 C.3     1  UNL1        0.0413
     12 H          62.0221   80.3198   14.6670 H       1  UNL1        0.2102
     13 N          62.4892   85.1030   15.7656 N.3     1  UNL1       -0.2944
     14 H          62.2352   84.4931   16.5427 H       1  UNL1        0.1235
     15 C          63.6129   85.9724   16.2468 C.3     1  UNL1        0.1186
     16 C          63.6012   87.4435   15.9541 C.ar    1  UNL1        0.1162
     17 C          64.2936   88.1201   14.8084 C.ar    1  UNL1        0.0550
     18 C          64.0154   89.5911   14.9020 C.ar    1  UNL1        0.1537
     19 O          63.1509   89.8236   16.1056 O.2     1  UNL1       -0.3581
     20 N          62.8949   88.4964   16.7559 N.ar    1  UNL1       -0.0804
     21 C          64.5140   90.6446   13.9579 C.3     1  UNL1        0.0602
     22 C          64.3617   91.4278   12.6876 C.3     1  UNL1        0.0081
     23 C          65.5298   91.6862   13.5927 C.3     1  UNL1        0.0081
@<TRIPOS>BOND
     1     1     2    1
     2     2     3    1
     3     3     4    1
     4     4     5    1
     5     5     6    1
     6     6     7    1
     7     6     8    1
     8     8     9    1
     9     9    13    1
    10    13    15    1
    11    15    16    1
    12    16    17   ar
    13    17    18   ar
    14    18    21    1
    15    21    22    1
    16    22    23    1
    17    18    19   ar
    18    19    20   ar
    19     9    10    1
    20     9    11    1
    21     7     2    1
    22    20    16   ar
    23    11     2    1
    24    10     4    1
    25    23    21    1
    26     1    12    1
    27    13    14    1
@<TRIPOS>MOLECULE
*****
 23 27 0 0 0
SMALL
GASTEIGER

@<TRIPOS>ATOM
      1 O          65.7976   95.7907   12.0775 O.3     1  UNL1       -0.3867
      2 C          66.5031   95.1644   10.9113 C.3     1  UNL1        0.0896
      3 C          66.7967   93.6934   10.9143 C.3     1  UNL1        0.0270
      4 C          67.5022   93.0671    9.7482 C.3     1  UNL1        0.0036
      5 C          67.9141   93.9118    8.5790 C.3     1  UNL1        0.0002
      6 C          67.6204   95.3827    8.5760 C.3     1  UNL1        0.0036
      7 C          66.9149   96.0090    9.7422 C.3     1  UNL1        0.0270
      8 C          66.4531   94.1857   11.4068 C.3     1  UNL1        0.0146
      9 C          66.3849   92.8488   12.0835 C.3     1  UNL1        0.0445
     10 C          67.0904   92.2225   10.9173 C.3     1  UNL1        0.0146
     11 C          66.0913   94.3197   12.0805 C.3     1  UNL1        0.0413
     12 H          65.6871   96.7408   11.9163 H       1  UNL1        0.2102
     13 N          65.9731   92.0041   13.2527 N.3     1  UNL1       -0.2944
     14 H          66.0850   92.5809   14.0865 H       1  UNL1        0.1235
     15 C          64.5908   91.4246   13.3093 C.3     1  UNL1        0.1186
     16 C          64.0860   90.8118   14.5820 C.ar    1  UNL1        0.1162
     17 C          63.9501   89.3442   14.8606 C.ar    1  UNL1        0.0550
     18 C          63.4086   89.1844   16.2503 C.ar    1  UNL1        0.1537
     19 O          63.2098   90.5532   16.8306 O.2     1  UNL1       -0.3581
     20 N          63.6284   91.5591   15.7996 N.ar    1  UNL1       -0.0804
     21 C          63.1171   87.8841   16.9389 C.3     1  UNL1        0.0602
     22 C          62.9865   86.3904   16.8927 C.3     1  UNL1        0.0081
     23 C          62.7429   87.1253   18.1775 C.3     1  UNL1        0.0081
@<TRIPOS>BOND
     1     1     2    1
     2     2     3    1
     3     3     4    1
     4     4     5    1
     5     5     6    1
     6     6     7    1
     7     6     8    1
     8     8     9    1
     9     9    13    1
    10    13    15    1
    11    15    16    1
    12    16    17   ar
    13    17    18   ar
    14    18    21    1
    15    21    22    1
    16    22    23    1
    17    18    19   ar
    18    19    20   ar
    19     9    10    1
    20     9    11    1
    21     7     2    1
    22    20    16   ar
    23    11     2    1
    24    10     4    1
    25    23    21    1
    26     1    12    1
    27    13    14    1
@<TRIPOS>MOLECULE
*****
 23 27 0 0 0
SMALL
GASTEIGER

@<TRIPOS>ATOM
      1 O          61.8172   85.3884   12.5432 O.3     1  UNL1       -0.3867
      2 C          62.2201   85.3695   11.0984 C.3     1  UNL1        0.0896
      3 C          63.0766   84.2557   10.5732 C.3     1  UNL1        0.0270
      4 C          63.4795   84.2369    9.1285 C.3     1  UNL1        0.0036
      5 C          63.0260   85.3318    8.2090 C.3     1  UNL1        0.0002
      6 C          62.1695   86.4455    8.7342 C.3     1  UNL1        0.0036
      7 C          61.7666   86.4644   10.1789 C.3     1  UNL1        0.0270
      8 C          62.7738   84.4360   11.2651 C.3     1  UNL1        0.0146
      9 C          63.5302   83.1608   11.4927 C.3     1  UNL1        0.0445
     10 C          63.9331   83.1419   10.0480 C.3     1  UNL1        0.0146
     11 C          62.6737   84.2746   12.0179 C.3     1  UNL1        0.0413
     12 H          61.2692   86.1699   12.7158 H       1  UNL1        0.2102
     13 N          63.9838   82.0659   12.4122 N.3     1  UNL1       -0.2944
     14 H          64.9803   81.9316   12.2410 H       1  UNL1        0.1235
     15 C          63.8152   82.2141   13.8953 C.3     1  UNL1        0.1186
     16 C          64.0630   83.5410   14.5494 C.ar    1  UNL1        0.1162
     17 C          63.1768   84.2041   15.5618 C.ar    1  UNL1        0.0550
     18 C          63.8066   85.5107   15.9441 C.ar    1  UNL1        0.1537
     19 O          65.0821   85.6551   15.1680 O.2     1  UNL1       -0.3581
     20 N          65.2406   84.4378   14.3060 N.ar    1  UNL1       -0.0804
     21 C          63.2574   86.4993   16.9295 C.3     1  UNL1        0.0602
     22 C          62.6490   86.7986   18.2675 C.3     1  UNL1        0.0081
     23 C          62.9146   87.9122   17.2983 C.3     1  UNL1        0.0081
@<TRIPOS>BOND
     1     1     2    1
     2     2     3    1
     3     3     4    1
     4     4     5    1
     5     5     6    1
     6     6     7    1
     7     6     8    1
     8     8     9    1
     9     9    13    1
    10    13    15    1
    11    15    16    1
    12    16    17   ar
    13    17    18   ar
    14    18    21    1
    15    21    22    1
    16    22    23    1
    17    18    19   ar
    18    19    20   ar
    19     9    10    1
    20     9    11    1
    21     7     2    1
    22    20    16   ar
    23    11     2    1
    24    10     4    1
    25    23    21    1
    26     1    12    1
    27    13    14    1
@<TRIPOS>MOLECULE
*****
 23 27 0 0 0
SMALL
GASTEIGER

@<TRIPOS>ATOM
      1 O          62.5316   89.9020   13.6428 O.3     1  UNL1       -0.3867
      2 C          63.5595   90.7308   12.9310 C.3     1  UNL1        0.0896
      3 C          63.3819   91.0612   11.4787 C.3     1  UNL1        0.0270
      4 C          64.4097   91.8899   10.7669 C.3     1  UNL1        0.0036
      5 C          65.6152   92.3884   11.5075 C.3     1  UNL1        0.0002
      6 C          65.7928   92.0580   12.9598 C.3     1  UNL1        0.0036
      7 C          64.7650   91.2292   13.6715 C.3     1  UNL1        0.0270
      8 C          62.9749   90.6598   12.0041 C.3     1  UNL1        0.0146
      9 C          62.1764   90.5628   10.7381 C.3     1  UNL1        0.0445
     10 C          63.2043   91.3915   10.0263 C.3     1  UNL1        0.0146
     11 C          62.3540   90.2324   12.1904 C.3     1  UNL1        0.0413
     12 H          62.7969   89.7825   14.5681 H       1  UNL1        0.2102
     13 N          60.9710   90.0644    9.9975 N.3     1  UNL1       -0.2944
     14 H          60.7726   90.7461    9.2652 H       1  UNL1        0.1235
     15 C          60.9995   88.7171    9.3387 C.3     1  UNL1        0.1186
     16 C          61.3692   87.5007   10.1346 C.ar    1  UNL1        0.1162
     17 C          62.2411   86.3730    9.6678 C.ar    1  UNL1        0.0550
     18 C          62.3427   85.3737   10.7818 C.ar    1  UNL1        0.1537
     19 O          61.5335   85.8837   11.9372 O.2     1  UNL1       -0.3581
     20 N          60.9318   87.1983   11.5373 N.ar    1  UNL1       -0.0804
     21 C          63.1174   84.0897   10.7466 C.3     1  UNL1        0.0602
     22 C          63.3994   82.7269   11.3064 C.3     1  UNL1        0.0081
     23 C          64.1773   83.2286   10.1260 C.3     1  UNL1        0.0081
@<TRIPOS>BOND
     1     1     2    1
     2     2     3    1
     3     3     4    1
     4     4     5    1
     5     5     6    1
     6     6     7    1
     7     6     8    1
     8     8     9    1
     9     9    13    1
    10    13    15    1
    11    15    16    1
    12    16    17   ar
    13    17    18   ar
    14    18    21    1
    15    21    22    1
    16    22    23    1
    17    18    19   ar
    18    19    20   ar
    19     9    10    1
    20     9    11    1
    21     7     2    1
    22    20    16   ar
    23    11     2    1
    24    10     4    1
    25    23    21    1
    26     1    12    1
    27    13    14    1
@<TRIPOS>MOLECULE
*****
 23 27 0 0 0
SMALL
GASTEIGER

@<TRIPOS>ATOM
      1 O          61.3716   86.4046   11.9226 O.3     1  UNL1       -0.3867
      2 C          62.0798   85.7237   10.7890 C.3     1  UNL1        0.0896
      3 C          62.9382   84.5226   11.0543 C.3     1  UNL1        0.0270
      4 C          63.6463   83.8418    9.9207 C.3     1  UNL1        0.0036
      5 C          63.4960   84.3621    8.5219 C.3     1  UNL1        0.0002
      6 C          62.6376   85.5632    8.2566 C.3     1  UNL1        0.0036
      7 C          61.9295   86.2440    9.3902 C.3     1  UNL1        0.0270
      8 C          62.5061   84.9962   11.4924 C.3     1  UNL1        0.0146
      9 C          63.0885   84.0024   12.4531 C.3     1  UNL1        0.0445
     10 C          63.7966   83.3215   11.3195 C.3     1  UNL1        0.0146
     11 C          62.2301   85.2035   12.1878 C.3     1  UNL1        0.0413
     12 H          60.8639   87.1574   11.5812 H       1  UNL1        0.2102
     13 N          63.2388   83.4821   13.8519 N.3     1  UNL1       -0.2944
     14 H          63.5364   82.5096   13.7739 H       1  UNL1        0.1235
     15 C          64.1871   84.1502   14.8028 C.3     1  UNL1        0.1186
     16 C          63.9389   85.5633   15.2405 C.ar    1  UNL1        0.1162
     17 C          64.4627   86.7988   14.5705 C.ar    1  UNL1        0.0550
     18 C          63.9708   87.9881   15.3410 C.ar    1  UNL1        0.1537
     19 O          63.1429   87.4875   16.4874 O.2     1  UNL1       -0.3581
     20 N          63.1232   85.9889   16.4253 N.ar    1  UNL1       -0.0804
     21 C          64.2565   89.4254   15.0214 C.3     1  UNL1        0.0602
     22 C          63.9952   90.8844   15.2526 C.3     1  UNL1        0.0081
     23 C          65.0126   90.4563   14.2368 C.3     1  UNL1        0.0081
@<TRIPOS>BOND
     1     1     2    1
     2     2     3    1
     3     3     4    1
     4     4     5    1
     5     5     6    1
     6     6     7    1
     7     6     8    1
     8     8     9    1
     9     9    13    1
    10    13    15    1
    11    15    16    1
    12    16    17   ar
    13    17    18   ar
    14    18    21    1
    15    21    22    1
    16    22    23    1
    17    18    19   ar
    18    19    20   ar
    19     9    10    1
    20     9    11    1
    21     7     2    1
    22    20    16   ar
    23    11     2    1
    24    10     4    1
    25    23    21    1
    26     1    12    1
    27    13    14    1
@<TRIPOS>MOLECULE
*****
 23 27 0 0 0
SMALL
GASTEIGER

@<TRIPOS>ATOM
      1 O          62.6787   86.6344   11.8179 O.3     1  UNL1       -0.3867
      2 C          61.8299   87.1554   10.6961 C.3     1  UNL1        0.0896
      3 C          61.6391   88.6332   10.5240 C.3     1  UNL1        0.0270
      4 C          60.7904   89.1541    9.4023 C.3     1  UNL1        0.0036
      5 C          60.1326   88.1973    8.4527 C.3     1  UNL1        0.0002
      6 C          60.3234   86.7195    8.6248 C.3     1  UNL1        0.0036
      7 C          61.1721   86.1986    9.7466 C.3     1  UNL1        0.0270
      8 C          62.0273   88.1844   11.0248 C.3     1  UNL1        0.0146
      9 C          62.2969   89.5901   11.4736 C.3     1  UNL1        0.0445
     10 C          61.4482   90.1110   10.3519 C.3     1  UNL1        0.0146
     11 C          62.4878   88.1123   11.6457 C.3     1  UNL1        0.0413
     12 H          62.6973   85.6652   11.7861 H       1  UNL1        0.2102
     13 N          62.9547   90.5469   12.4232 N.3     1  UNL1       -0.2944
     14 H          62.3544   91.3700   12.4747 H       1  UNL1        0.1235
     15 C          63.2365   90.1274   13.8354 C.3     1  UNL1        0.1186
     16 C          64.0991   90.9838   14.7143 C.ar    1  UNL1        0.1162
     17 C          65.5540   91.2807   14.5018 C.ar    1  UNL1        0.0550
     18 C          66.0125   92.1740   15.6161 C.ar    1  UNL1        0.1537
     19 O          64.8409   92.4293   16.5173 O.2     1  UNL1       -0.3581
     20 N          63.6583   91.6938   15.9600 N.ar    1  UNL1       -0.0804
     21 C          67.3990   92.7168   15.7974 C.3     1  UNL1        0.0602
     22 C          68.8421   92.5035   16.1466 C.3     1  UNL1        0.0081
     23 C          68.3574   93.8701   15.7623 C.3     1  UNL1        0.0081
@<TRIPOS>BOND
     1     1     2    1
     2     2     3    1
     3     3     4    1
     4     4     5    1
     5     5     6    1
     6     6     7    1
     7     6     8    1
     8     8     9    1
     9     9    13    1
    10    13    15    1
    11    15    16    1
    12    16    17   ar
    13    17    18   ar
    14    18    21    1
    15    21    22    1
    16    22    23    1
    17    18    19   ar
    18    19    20   ar
    19     9    10    1
    20     9    11    1
    21     7     2    1
    22    20    16   ar
    23    11     2    1
    24    10     4    1
    25    23    21    1
    26     1    12    1
    27    13    14    1
@<TRIPOS>MOLECULE
*****
 23 27 0 0 0
SMALL
GASTEIGER

@<TRIPOS>ATOM
      1 O          60.2846   90.2657    9.5562 O.3     1  UNL1       -0.3867
      2 C          60.3092   88.8548    9.0476 C.3     1  UNL1        0.0896
      3 C          61.1895   87.8350    9.7071 C.3     1  UNL1        0.0270
      4 C          61.2140   86.4241    9.1985 C.3     1  UNL1        0.0036
      5 C          60.3581   86.0330    8.0303 C.3     1  UNL1        0.0002
      6 C          59.4777   87.0527    7.3709 C.3     1  UNL1        0.0036
      7 C          59.4533   88.4636    7.8795 C.3     1  UNL1        0.0270
      8 C          61.0430   88.5891    9.8200 C.3     1  UNL1        0.0146
      9 C          62.0454   88.2261   10.8752 C.3     1  UNL1        0.0445
     10 C          62.0699   86.8152   10.3666 C.3     1  UNL1        0.0146
     11 C          61.1650   89.2459   10.2157 C.3     1  UNL1        0.0413
     12 H          59.6682   90.7911    9.0225 H       1  UNL1        0.2102
     13 N          62.9013   88.6172   12.0433 N.3     1  UNL1       -0.2944
     14 H          63.8682   88.5994   11.7189 H       1  UNL1        0.1235
     15 C          62.6941   89.9426   12.7144 C.3     1  UNL1        0.1186
     16 C          63.7410   91.0111   12.6039 C.ar    1  UNL1        0.1162
     17 C          64.2940   91.5751   11.3287 C.ar    1  UNL1        0.0550
     18 C          65.3136   92.6158   11.6858 C.ar    1  UNL1        0.1537
     19 O          65.3907   92.6949   13.1818 O.2     1  UNL1       -0.3581
     20 N          64.4189   91.7031   13.7492 N.ar    1  UNL1       -0.0804
     21 C          66.1152   93.4337   10.7172 C.3     1  UNL1        0.0602
     22 C          67.2243   93.5394    9.7128 C.3     1  UNL1        0.0081
     23 C          66.3947   94.7446   10.0438 C.3     1  UNL1        0.0081
@<TRIPOS>BOND
     1     1     2    1
     2     2     3    1
     3     3     4    1
     4     4     5    1
     5     5     6    1
     6     6     7    1
     7     6     8    1
     8     8     9    1
     9     9    13    1
    10    13    15    1
    11    15    16    1
    12    16    17   ar
    13    17    18   ar
    14    18    21    1
    15    21    22    1
    16    22    23    1
    17    18    19   ar
    18    19    20   ar
    19     9    10    1
    20     9    11    1
    21     7     2    1
    22    20    16   ar
    23    11     2    1
    24    10     4    1
    25    23    21    1
    26     1    12    1
    27    13    14    1
