@<TRIPOS>MOLECULE
*****
 37 40 0 0 0
SMALL
GASTEIGER

@<TRIPOS>ATOM
      1 C          64.1490   90.0219   15.0484 C.2     1  UNL1        0.2535
      2 O          63.9382   90.5874   16.4217 O.2     1  UNL1       -0.2695
      3 N          63.8746   88.5711   14.7844 N.am    1  UNL1       -0.2550
      4 C          64.1176   88.1081   13.3784 C.3     1  UNL1        0.1045
      5 C          63.9395   86.7347   12.8022 C.3     1  UNL1        0.0929
      6 C          63.4744   85.4851   13.4894 C.3     1  UNL1        0.2845
      7 F          63.7174   85.0222   12.0835 F       1  UNL1       -0.1995
      8 F          63.1175   84.0295   13.5510 F       1  UNL1       -0.1995
      9 C          63.0727   85.3004   14.9228 C.2     1  UNL1        0.0435
     10 C          62.6511   83.9130   15.3069 C.2     1  UNL1        0.0587
     11 C          63.0367   86.3195   16.0229 C.ar    1  UNL1        0.0149
     12 C          62.5719   85.7152   17.3147 C.ar    1  UNL1        0.0011
     13 C          62.4640   86.5666   18.5449 C.ar    1  UNL1        0.0001
     14 C          62.8209   88.0222   18.4833 C.ar    1  UNL1        0.0013
     15 C          63.2857   88.6265   17.1915 C.ar    1  UNL1        0.0149
     16 C          63.3936   87.7751   15.9613 C.ar    1  UNL1        0.0539
     17 C          65.6044   92.6784   11.7204 C.ar    1  UNL1        0.0837
     18 C          64.2560   92.0281   11.6258 C.ar    1  UNL1        0.0193
     19 C          63.7709   91.1426   12.7351 C.ar    1  UNL1        0.0069
     20 C          64.6341   90.9075   13.9390 C.ar    1  UNL1        0.0645
     21 C          65.9825   91.5578   14.0337 C.ar    1  UNL1        0.0635
     22 CL         66.8457   91.3226   15.2377 Cl      1  UNL1       -0.0820
     23 C          66.4676   92.4433   12.9244 C.ar    1  UNL1        0.0307
     24 C          66.1544   96.7879    8.4508 C.3     1  UNL1        0.0540
     25 C          66.3424   95.4528    9.1082 C.ar    1  UNL1        0.0809
     26 C          67.3299   94.4002    8.6999 C.ar    1  UNL1        0.0371
     27 C          67.1736   93.2328    9.6287 C.ar    1  UNL1        0.1016
     28 N          66.0895   93.5639   10.6111 N.ar    1  UNL1       -0.2285
     29 N          65.5758   94.9359   10.2895 N.ar    1  UNL1       -0.1694
     30 C          62.6508   82.8183   14.2813 C.2     1  UNL1        0.2459
     31 O          61.4419   81.9458   14.1161 O.2     1  UNL1       -0.2701
     32 N          63.8593   82.5961   13.4210 N.am    1  UNL1       -0.2985
     33 H          64.6527   83.1688   13.5294 H       1  UNL1        0.1498
     34 C          63.8589   81.5014   12.3955 C.3     1  UNL1        0.1215
     35 C          63.6078   81.8256   10.9526 C.3     1  UNL1        0.1583
     36 O          64.6588   82.5326   10.1489 O.3     1  UNL1       -0.3802
     37 H          64.7836   83.4292   10.4974 H       1  UNL1        0.2105
@<TRIPOS>BOND
     1    24    25    1
     2    25    26   ar
     3    26    27   ar
     4    27    28   ar
     5    28    17    1
     6    17    18   ar
     7    18    19   ar
     8    19    20   ar
     9    20     1    1
    10     1     2    2
    11     1     3   am
    12     3     4    1
    13     4     5    1
    14     5     6    1
    15     6     7    1
    16     6     8    1
    17     6     9    1
    18     9    10    2
    19    10    30    1
    20    30    31    2
    21    30    32   am
    22    32    34    1
    23    34    35    1
    24    35    36    1
    25     9    11    1
    26    11    12   ar
    27    12    13   ar
    28    13    14   ar
    29    14    15   ar
    30    15    16   ar
    31    20    21   ar
    32    21    22    1
    33    21    23   ar
    34    28    29   ar
    35    29    25   ar
    36    23    17   ar
    37    16     3    1
    38    16    11   ar
    39    32    33    1
    40    36    37    1
