@<TRIPOS>MOLECULE
*****
 45 52 0 0 0
SMALL
GASTEIGER

@<TRIPOS>ATOM
      1 C          61.8151   87.7293    9.5206 C.3     1  UNL1        0.2256
      2 C          61.3454   86.6832    8.5536 C.3     1  UNL1        0.0607
      3 O          62.1205   86.5537   10.4007 O.3     1  UNL1       -0.2976
      4 C          62.6946   87.0731   11.6854 C.3     1  UNL1        0.2754
      5 O          62.5841   85.5784   11.6269 O.3     1  UNL1       -0.3478
      6 C          63.1788   86.3767   12.9225 C.3     1  UNL1        0.1465
      7 C          63.2528   84.9251   13.2934 C.3     1  UNL1        0.0285
      8 C          63.8320   84.8283   14.6737 C.3     1  UNL1        0.0234
      9 C          64.1161   86.2200   15.1559 C.3     1  UNL1        0.0937
     10 N          63.7124   87.1770   14.0736 N.am    1  UNL1       -0.2734
     11 C          63.7618   88.6737   13.9875 C.2     1  UNL1        0.2444
     12 O          64.2953   89.4740   15.1385 O.2     1  UNL1       -0.2731
     13 C          63.2775   89.3701   12.7504 C.3     1  UNL1        0.1604
     14 N          62.7439   88.5698   11.5993 N.am    1  UNL1       -0.2268
     15 C          62.2003   88.9753   10.2614 C.2     1  UNL1        0.2719
     16 O          62.0657   90.3802    9.7534 O.2     1  UNL1       -0.2704
     17 H          62.9135   85.1971   12.4558 H       1  UNL1        0.2145
     18 C          60.0664   88.5576    7.7868 C.2     1  UNL1        0.2293
     19 O          59.1251   87.4721    8.2176 O.2     1  UNL1       -0.2746
     20 N          61.4114   88.6862    8.4384 N.am    1  UNL1       -0.2787
     21 H          62.0292   89.3987    8.1557 H       1  UNL1        0.1519
     22 C          56.3872   91.2919    5.3399 C.3     1  UNL1        0.0899
     23 N          57.8231   90.8817    5.4811 N.3     1  UNL1       -0.2681
     24 C          58.2267   89.9248    6.5634 C.3     1  UNL1        0.0859
     25 C          59.6627   89.5146    6.7046 C.3     1  UNL1        0.1141
     26 C          60.6949   90.0613    5.7635 C.2     1  UNL1       -0.0192
     27 C          60.2912   91.0183    4.6813 C.2     1  UNL1       -0.0145
     28 C          61.3235   91.5650    3.7402 C.2     1  UNL1       -0.0161
     29 C          62.7593   91.1548    3.8814 C.2     1  UNL1       -0.0038
     30 C          63.7915   91.7016    2.9404 C.2     1  UNL1        0.0009
     31 C          63.3879   92.6585    1.8581 C.2     1  UNL1        0.0153
     32 C          61.9520   93.0687    1.7169 C.2     1  UNL1        0.0665
     33 N          61.1278   93.9545    0.8303 N.2     1  UNL1       -0.2482
     34 C          59.7028   93.8757    1.2921 C.2     1  UNL1        0.0907
     35 C          59.4839   92.9322    2.5167 C.2     1  UNL1       -0.0142
     36 C          60.9198   92.5220    2.6579 C.3     1  UNL1        0.0819
     37 C          58.4517   92.3854    3.4578 C.3     1  UNL1        0.0447
     38 C          58.8553   91.4285    4.5400 C.3     1  UNL1        0.0837
     39 C          63.3269   90.8668   12.6643 C.3     1  UNL1        0.0557
     40 C          64.5954   91.5529   12.2519 C.ar    1  UNL1       -0.0200
     41 C          65.7125   91.7205   13.2388 C.ar    1  UNL1       -0.0042
     42 C          66.9810   92.4066   12.8264 C.ar    1  UNL1       -0.0003
     43 C          67.1325   92.9252   11.4271 C.ar    1  UNL1       -0.0000
     44 C          66.0154   92.7576   10.4401 C.ar    1  UNL1       -0.0003
     45 C          64.7469   92.0715   10.8525 C.ar    1  UNL1       -0.0042
@<TRIPOS>BOND
     1    22    23    1
     2    23    24    1
     3    24    25    1
     4    25    18    1
     5    18    19    2
     6    18    20   am
     7    20     1    1
     8     1     2    1
     9     1     3    1
    10     3     4    1
    11     4     5    1
    12     4     6    1
    13     6     7    1
    14     7     8    1
    15     8     9    1
    16     9    10    1
    17    10    11   am
    18    11    12    2
    19    11    13    1
    20    13    39    1
    21    39    40    1
    22    40    41   ar
    23    41    42   ar
    24    42    43   ar
    25    43    44   ar
    26    44    45   ar
    27    13    14    1
    28    14    15   am
    29    15    16    2
    30    25    26    1
    31    26    27    2
    32    27    28    1
    33    28    29    2
    34    29    30    1
    35    30    31    2
    36    31    32    1
    37    32    33    2
    38    33    34    1
    39    34    35    2
    40    35    36    1
    41    35    37    1
    42    38    37    1
    43    38    23    1
    44    15     1    1
    45    38    27    1
    46    14     4    1
    47    36    28    1
    48    10     6    1
    49    45    40   ar
    50    36    32    1
    51    20    21    1
    52     5    17    1
