@<TRIPOS>MOLECULE
*****
 62 69 0 0 0
SMALL
GASTEIGER

@<TRIPOS>ATOM
      1 N          62.2721   94.7037   -3.4516 N.3     1  UNL1       -0.1862
      2 C          61.1718   94.3146   -4.3938 C.3     1  UNL1        0.1775
      3 C          59.8575   93.8334   -3.8542 C.2     1  UNL1        0.2452
      4 O          58.7571   93.4443   -4.7965 O.2     1  UNL1       -0.2732
      5 N          59.6436   93.7413   -2.3725 N.am    1  UNL1       -0.2541
      6 C          58.3293   93.2600   -1.8329 C.3     1  UNL1        0.1577
      7 C          58.1154   93.1679   -0.3511 C.2     1  UNL1        0.2445
      8 O          56.8011   92.6867    0.1884 O.2     1  UNL1       -0.2731
      9 N          59.2157   93.5571    0.5912 N.am    1  UNL1       -0.2705
     10 C          60.5300   94.0383    0.0516 C.3     1  UNL1        0.1359
     11 C          60.7439   94.1304   -1.4302 C.3     1  UNL1        0.1908
     12 N          62.0582   94.6116   -1.9698 N.am    1  UNL1       -0.1863
     13 C          63.1585   95.0008   -1.0275 C.2     1  UNL1        0.3191
     14 O          62.9446   94.9086    0.4543 O.2     1  UNL1       -0.2512
     15 N          64.4728   95.4820   -1.5671 N.am    1  UNL1       -0.2836
     16 H          64.6132   95.5425   -2.5396 H       1  UNL1        0.1513
     17 C          63.5863   95.1850   -3.9911 C.3     1  UNL1        0.1188
     18 C          64.3657   92.7259   -4.3001 C.2     1  UNL1       -0.0034
     19 C          64.6073   94.1964   -4.4710 C.2     1  UNL1       -0.0071
     20 C          57.2290   92.8709   -2.7751 C.3     1  UNL1        0.0556
     21 C          56.1364   93.8472   -3.0964 C.ar    1  UNL1       -0.0198
     22 C          55.2863   94.4101   -1.9962 C.ar    1  UNL1       -0.0011
     23 C          54.1937   95.3864   -2.3175 C.ar    1  UNL1        0.0363
     24 C          53.9512   95.7997   -3.7389 C.ar    1  UNL1        0.1337
     25 O          52.8587   96.7759   -4.0601 O.3     1  UNL1       -0.5055
     26 C          54.8014   95.2367   -4.8391 C.ar    1  UNL1        0.0363
     27 C          55.8940   94.2605   -4.5178 C.ar    1  UNL1       -0.0011
     28 H          52.3276   97.1276   -3.3729 H       1  UNL1        0.2922
     29 C          59.0018   93.4649    2.0730 C.3     1  UNL1        0.1217
     30 C          59.8836   92.5813    2.9046 C.ar    1  UNL1        0.0135
     31 C          61.3508   92.4910    2.6057 C.ar    1  UNL1       -0.0012
     32 C          62.2326   91.6074    3.4372 C.ar    1  UNL1       -0.0002
     33 C          61.6473   90.8140    4.5677 C.ar    1  UNL1        0.0015
     34 C          60.1801   90.9043    4.8666 C.ar    1  UNL1        0.0170
     35 C          59.3256   90.2451    5.9084 C.ar    1  UNL1        0.0186
     36 C          57.9157   90.7214    5.7207 C.ar    1  UNL1        0.0759
     37 N          57.8988   91.6749    4.5629 N.ar    1  UNL1       -0.3242
     38 C          56.6940   92.3898    4.0270 C.3     1  UNL1        0.1305
     39 C          59.2983   91.7879    4.0350 C.ar    1  UNL1        0.0575
     40 C          59.7982   89.2792    6.9543 C.ar    1  UNL1        0.0016
     41 C          60.4932   89.7854    8.1834 C.ar    1  UNL1        0.0013
     42 C          60.9657   88.8196    9.2293 C.ar    1  UNL1        0.0147
     43 C          60.7432   87.3475    9.0460 C.ar    1  UNL1        0.0505
     44 C          60.0481   86.8413    7.8169 C.ar    1  UNL1        0.0147
     45 C          59.5757   87.8072    6.7711 C.ar    1  UNL1        0.0013
     46 N          61.2157   86.3817   10.0919 N.am    1  UNL1       -0.2804
     47 C          62.4109   85.5148    9.8272 C.2     1  UNL1        0.2495
     48 O          63.1336   85.6138    8.5165 O.2     1  UNL1       -0.2698
     49 H          60.7413   86.3167   10.9522 H       1  UNL1        0.1552
     50 C          62.8833   84.5491   10.8731 C.ar    1  UNL1        0.0537
     51 C          63.7675   83.4001   10.4883 C.ar    1  UNL1        0.0045
     52 C          64.2400   82.4342   11.5342 C.ar    1  UNL1        0.0001
     53 C          63.8283   82.6174   12.9649 C.ar    1  UNL1        0.0000
     54 C          62.9441   83.7664   13.3497 C.ar    1  UNL1        0.0001
     55 C          62.4716   84.7322   12.3039 C.ar    1  UNL1        0.0045
     56 C          65.5731   95.8711   -0.6249 C.3     1  UNL1        0.1177
     57 C          65.4018   95.6711    0.8518 C.ar    1  UNL1       -0.0025
     58 C          65.3796   96.8558    1.7716 C.ar    1  UNL1       -0.0026
     59 C          65.2083   96.6559    3.2483 C.ar    1  UNL1       -0.0003
     60 C          65.0590   95.2712    3.8052 C.ar    1  UNL1       -0.0000
     61 C          65.0812   94.0863    2.8855 C.ar    1  UNL1       -0.0003
     62 C          65.2525   94.2863    1.4088 C.ar    1  UNL1       -0.0026
@<TRIPOS>BOND
     1    18    19    2
     2    19    17    1
     3    17     1    1
     4     1     2    1
     5     2     3    1
     6     3     4    2
     7     3     5   am
     8     5     6    1
     9     6    20    1
    10    20    21    1
    11    21    22   ar
    12    22    23   ar
    13    23    24   ar
    14    24    25    1
    15    24    26   ar
    16    26    27   ar
    17     6     7    1
    18     7     8    2
    19     7     9   am
    20     9    29    1
    21    29    30    1
    22    30    31   ar
    23    31    32   ar
    24    32    33   ar
    25    33    34   ar
    26    34    35   ar
    27    35    40    1
    28    40    41   ar
    29    41    42   ar
    30    42    43   ar
    31    43    46    1
    32    46    47   am
    33    47    48    2
    34    47    50    1
    35    50    51   ar
    36    51    52   ar
    37    52    53   ar
    38    53    54   ar
    39    54    55   ar
    40    43    44   ar
    41    44    45   ar
    42    35    36   ar
    43    36    37   ar
    44    37    38    1
    45    37    39   ar
    46     9    10    1
    47    11    10    1
    48    11    12    1
    49    12    13   am
    50    13    14    2
    51    13    15   am
    52    15    56    1
    53    56    57    1
    54    57    58   ar
    55    58    59   ar
    56    59    60   ar
    57    60    61   ar
    58    61    62   ar
    59    12     1    1
    60    62    57   ar
    61    11     5    1
    62    27    21   ar
    63    39    30   ar
    64    39    34   ar
    65    45    40   ar
    66    55    50   ar
    67    25    28    1
    68    46    49    1
    69    15    16    1
