@<TRIPOS>MOLECULE
*****
 38 42 0 0 0
SMALL
GASTEIGER

@<TRIPOS>ATOM
      1 C          63.5289   88.6008   16.1817 C.ar    1  UNL1       -0.0186
      2 C          62.8264   87.9337   17.3270 C.ar    1  UNL1       -0.0041
      3 C          62.8611   86.4401   17.4606 C.ar    1  UNL1        0.0028
      4 C          63.5982   85.6135   16.4489 C.ar    1  UNL1        0.0369
      5 C          64.3006   86.2806   15.3037 C.ar    1  UNL1        0.1383
      6 C          64.2659   87.7743   15.1701 C.ar    1  UNL1        0.0326
      7 C          63.4942   90.0944   16.0481 C.3     1  UNL1        0.0376
      8 N          65.2250   91.7078   13.3068 N.am    1  UNL1       -0.2546
      9 C          65.3823   91.6929   14.7985 C.2     1  UNL1        0.2315
     10 O          66.3217   92.3401   15.7725 O.2     1  UNL1       -0.2745
     11 C          64.2111   90.7627   14.9126 C.3     1  UNL1        0.1052
     12 C          64.0537   90.7776   13.4210 C.3     1  UNL1        0.1249
     13 C          67.3758   93.7127    9.9002 C.ar    1  UNL1        0.1388
     14 C          67.9758   92.5067   10.5600 C.ar    1  UNL1        0.0382
     15 C          67.2589   91.8384   11.6955 C.ar    1  UNL1        0.0180
     16 C          65.9419   92.3761   12.1712 C.ar    1  UNL1        0.0543
     17 C          65.3418   93.5822   11.5114 C.ar    1  UNL1        0.0180
     18 C          66.0588   94.2505   10.3759 C.ar    1  UNL1        0.0382
     19 C          67.5455   95.6461    8.1731 C.3     1  UNL1        0.2525
     20 O          68.0927   94.3810    8.7647 O.3     1  UNL1       -0.4714
     21 C          63.1143   90.1305   12.4470 C.2     1  UNL1        0.0692
     22 O          62.2976   90.9777   11.5167 O.co2   1  UNL1       -0.5475
     23 O          62.9915   88.6362   12.4032 O.co2   1  UNL1       -0.5475
     24 O          65.0377   85.4540   14.2920 O.3     1  UNL1       -0.4751
     25 C          64.5116   84.1056   13.8985 C.3     1  UNL1        0.2118
     26 C          63.1289   83.9761   13.3317 C.3     1  UNL1        0.0960
     27 C          62.8340   84.4820   11.9506 C.ar    1  UNL1        0.0960
     28 N          61.8558   85.5631   11.5980 N.ar    1  UNL1       -0.2129
     29 C          61.8828   85.7450   10.1092 C.ar    1  UNL1        0.2289
     30 O          62.8777   84.7762    9.5419 O.2     1  UNL1       -0.4392
     31 C          63.4655   83.9957   10.6800 C.ar    1  UNL1        0.1387
     32 C          64.5028   82.9180   10.5672 C.3     1  UNL1        0.0738
     33 C          61.0595   86.7236    9.3254 C.ar    1  UNL1        0.0535
     34 C          60.1091   86.2319    8.2742 C.ar    1  UNL1        0.0046
     35 C          59.2858   87.2105    7.4905 C.ar    1  UNL1        0.0002
     36 C          59.4129   88.6810    7.7579 C.ar    1  UNL1        0.0000
     37 C          60.3633   89.1728    8.8091 C.ar    1  UNL1        0.0002
     38 C          61.1866   88.1941    9.5928 C.ar    1  UNL1        0.0046
@<TRIPOS>UNITY_ATOM_ATTR
22 1
charge -1
@<TRIPOS>BOND
     1    19    20    1
     2    20    13    1
     3    13    14   ar
     4    14    15   ar
     5    15    16   ar
     6    16     8    1
     7     8     9   am
     8     9    10    2
     9     9    11    1
    10    11     7    1
    11     7     1    1
    12     1     2   ar
    13     2     3   ar
    14     3     4   ar
    15     4     5   ar
    16     5    24    1
    17    24    25    1
    18    25    26    1
    19    26    27    1
    20    27    28   ar
    21    28    29   ar
    22    29    33    1
    23    33    34   ar
    24    34    35   ar
    25    35    36   ar
    26    36    37   ar
    27    37    38   ar
    28    29    30   ar
    29    30    31   ar
    30    31    32    1
    31     5     6   ar
    32    11    12    1
    33    12    21    1
    34    21    22   ar
    35    21    23   ar
    36    16    17   ar
    37    17    18   ar
    38    18    13   ar
    39    12     8    1
    40     6     1   ar
    41    31    27   ar
    42    38    33   ar
@<TRIPOS>MOLECULE
*****
 38 42 0 0 0
SMALL
GASTEIGER

@<TRIPOS>ATOM
      1 C          63.5769   88.6379   16.0642 C.ar    1  UNL1       -0.0186
      2 C          62.9048   87.9750   17.2299 C.ar    1  UNL1       -0.0041
      3 C          62.9204   86.4803   17.3540 C.ar    1  UNL1        0.0028
      4 C          63.6080   85.6483   16.3123 C.ar    1  UNL1        0.0369
      5 C          64.2801   86.3112   15.1466 C.ar    1  UNL1        0.1383
      6 C          64.2646   87.8060   15.0225 C.ar    1  UNL1        0.0326
      7 C          63.5613   90.1327   15.9401 C.3     1  UNL1        0.0376
      8 N          65.1959   91.7337   13.1333 N.am    1  UNL1       -0.2546
      9 C          63.9417   90.9309   13.3133 C.2     1  UNL1        0.2315
     10 O          62.8451   90.4587   12.4053 O.2     1  UNL1       -0.2745
     11 C          64.2384   90.7959   14.7775 C.3     1  UNL1        0.1052
     12 C          65.4926   91.5987   14.5975 C.3     1  UNL1        0.1249
     13 C          67.2272   93.7233    9.6453 C.ar    1  UNL1        0.1388
     14 C          67.8899   92.5723   10.3424 C.ar    1  UNL1        0.0382
     15 C          67.2129   91.9092   11.5050 C.ar    1  UNL1        0.0180
     16 C          65.8730   92.3969   11.9706 C.ar    1  UNL1        0.0543
     17 C          65.2103   93.5479   11.2736 C.ar    1  UNL1        0.0180
     18 C          65.8873   94.2111   10.1109 C.ar    1  UNL1        0.0382
     19 C          67.5354   95.7893    8.1005 C.3     1  UNL1        0.2525
     20 O          67.9043   94.3865    8.4827 O.3     1  UNL1       -0.4714
     21 C          66.5892   92.0709   15.5055 C.2     1  UNL1        0.0692
     22 O          66.2548   92.8471   16.7447 O.co2   1  UNL1       -0.5475
     23 O          68.0202   91.7670   15.1742 O.co2   1  UNL1       -0.5475
     24 O          64.9678   85.4792   14.1050 O.3     1  UNL1       -0.4751
     25 C          64.6089   84.0317   13.9441 C.3     1  UNL1        0.2118
     26 C          63.3465   83.6468   13.2311 C.3     1  UNL1        0.0960
     27 C          63.0272   84.2475   11.8942 C.ar    1  UNL1        0.0960
     28 N          62.0995   85.3994   11.6442 N.ar    1  UNL1       -0.2129
     29 C          62.0785   85.6656   10.1681 C.ar    1  UNL1        0.2289
     30 O          62.9932   84.6782    9.5059 O.2     1  UNL1       -0.4392
     31 C          63.5796   83.8018   10.5727 C.ar    1  UNL1        0.1387
     32 C          64.5482   82.6772   10.3562 C.3     1  UNL1        0.0738
     33 C          61.2825   86.7319    9.4758 C.ar    1  UNL1        0.0535
     34 C          60.2933   86.3579    8.4119 C.ar    1  UNL1        0.0046
     35 C          59.4973   87.4242    7.7196 C.ar    1  UNL1        0.0002
     36 C          59.6905   88.8646    8.0911 C.ar    1  UNL1        0.0000
     37 C          60.6797   89.2386    9.1549 C.ar    1  UNL1        0.0002
     38 C          61.4757   88.1723    9.8472 C.ar    1  UNL1        0.0046
@<TRIPOS>UNITY_ATOM_ATTR
22 1
charge -1
@<TRIPOS>BOND
     1    19    20    1
     2    20    13    1
     3    13    14   ar
     4    14    15   ar
     5    15    16   ar
     6    16     8    1
     7     8     9   am
     8     9    10    2
     9     9    11    1
    10    11     7    1
    11     7     1    1
    12     1     2   ar
    13     2     3   ar
    14     3     4   ar
    15     4     5   ar
    16     5    24    1
    17    24    25    1
    18    25    26    1
    19    26    27    1
    20    27    28   ar
    21    28    29   ar
    22    29    33    1
    23    33    34   ar
    24    34    35   ar
    25    35    36   ar
    26    36    37   ar
    27    37    38   ar
    28    29    30   ar
    29    30    31   ar
    30    31    32    1
    31     5     6   ar
    32    11    12    1
    33    12    21    1
    34    21    22   ar
    35    21    23   ar
    36    16    17   ar
    37    17    18   ar
    38    18    13   ar
    39    12     8    1
    40     6     1   ar
    41    31    27   ar
    42    38    33   ar
@<TRIPOS>MOLECULE
*****
 38 42 0 0 0
SMALL
GASTEIGER

@<TRIPOS>ATOM
      1 C          61.6365   85.7496   10.4250 C.ar    1  UNL1       -0.0186
      2 C          62.3244   85.4965    9.1162 C.ar    1  UNL1       -0.0041
      3 C          63.4575   84.5165    9.0417 C.ar    1  UNL1        0.0028
      4 C          63.9028   83.7896   10.2759 C.ar    1  UNL1        0.0369
      5 C          63.2150   84.0426   11.5847 C.ar    1  UNL1        0.1383
      6 C          62.0818   85.0227   11.6592 C.ar    1  UNL1        0.0326
      7 C          60.5033   86.7296   10.4995 C.3     1  UNL1        0.0376
      8 N          59.8654   88.9740    7.7301 N.am    1  UNL1       -0.2546
      9 C          59.7371   87.4954    7.9484 C.2     1  UNL1        0.2315
     10 O          59.2914   86.3342    7.1100 O.2     1  UNL1       -0.2745
     11 C          60.2391   87.6592    9.3524 C.3     1  UNL1        0.1052
     12 C          60.3675   89.1377    9.1342 C.3     1  UNL1        0.1249
     13 C          59.0727   91.7630    4.2887 C.ar    1  UNL1        0.1388
     14 C          60.4790   91.3570    4.6165 C.ar    1  UNL1        0.0382
     15 C          60.7433   90.4273    5.7636 C.ar    1  UNL1        0.0180
     16 C          59.6012   89.9036    6.5830 C.ar    1  UNL1        0.0543
     17 C          58.1949   90.3097    6.2552 C.ar    1  UNL1        0.0180
     18 C          57.9307   91.2393    5.1081 C.ar    1  UNL1        0.0382
     19 C          59.9198   93.0621    2.2044 C.3     1  UNL1        0.2525
     20 O          58.8085   92.6926    3.1416 O.3     1  UNL1       -0.4714
     21 C          60.8132   90.2989    9.9726 C.2     1  UNL1        0.0692
     22 O          62.2229   90.8012    9.8694 O.co2   1  UNL1       -0.5475
     23 O          59.8493   90.9579   10.9142 O.co2   1  UNL1       -0.5475
     24 O          63.6603   83.3157   12.8189 O.3     1  UNL1       -0.4751
     25 C          64.5042   84.0191   13.8401 C.3     1  UNL1        0.2118
     26 C          63.8633   84.6286   15.0516 C.3     1  UNL1        0.0960
     27 C          63.8410   86.1192   15.2185 C.ar    1  UNL1        0.0960
     28 N          64.3654   87.1242   14.2361 N.ar    1  UNL1       -0.2129
     29 C          64.1390   88.4926   14.8075 C.ar    1  UNL1        0.2289
     30 O          63.4746   88.3331   16.1429 O.2     1  UNL1       -0.4392
     31 C          63.2905   86.8663   16.3969 C.ar    1  UNL1        0.1387
     32 C          62.6656   86.2541   17.6153 C.3     1  UNL1        0.0738
     33 C          64.5115   89.7921   14.1576 C.ar    1  UNL1        0.0535
     34 C          65.6145   90.6297   14.7336 C.ar    1  UNL1        0.0046
     35 C          65.9870   91.9293   14.0836 C.ar    1  UNL1        0.0002
     36 C          65.2564   92.3912   12.8577 C.ar    1  UNL1        0.0000
     37 C          64.1534   91.5536   12.2817 C.ar    1  UNL1        0.0002
     38 C          63.7809   90.2540   12.9316 C.ar    1  UNL1        0.0046
@<TRIPOS>UNITY_ATOM_ATTR
22 1
charge -1
@<TRIPOS>BOND
     1    19    20    1
     2    20    13    1
     3    13    14   ar
     4    14    15   ar
     5    15    16   ar
     6    16     8    1
     7     8     9   am
     8     9    10    2
     9     9    11    1
    10    11     7    1
    11     7     1    1
    12     1     2   ar
    13     2     3   ar
    14     3     4   ar
    15     4     5   ar
    16     5    24    1
    17    24    25    1
    18    25    26    1
    19    26    27    1
    20    27    28   ar
    21    28    29   ar
    22    29    33    1
    23    33    34   ar
    24    34    35   ar
    25    35    36   ar
    26    36    37   ar
    27    37    38   ar
    28    29    30   ar
    29    30    31   ar
    30    31    32    1
    31     5     6   ar
    32    11    12    1
    33    12    21    1
    34    21    22   ar
    35    21    23   ar
    36    16    17   ar
    37    17    18   ar
    38    18    13   ar
    39    12     8    1
    40     6     1   ar
    41    31    27   ar
    42    38    33   ar
@<TRIPOS>MOLECULE
*****
 38 42 0 0 0
SMALL
GASTEIGER

@<TRIPOS>ATOM
      1 C          61.9093   85.9173   10.7548 C.ar    1  UNL1       -0.0186
      2 C          62.4997   85.5793    9.4179 C.ar    1  UNL1       -0.0041
      3 C          63.4960   84.4644    9.2982 C.ar    1  UNL1        0.0028
      4 C          63.9020   83.6875   10.5154 C.ar    1  UNL1        0.0369
      5 C          63.3117   84.0255   11.8523 C.ar    1  UNL1        0.1383
      6 C          62.3153   85.1405   11.9720 C.ar    1  UNL1        0.0326
      7 C          60.9130   87.0322   10.8745 C.3     1  UNL1        0.0376
      8 N          60.1249   89.0737    7.9891 N.am    1  UNL1       -0.2546
      9 C          60.7554   89.3260    9.3266 C.2     1  UNL1        0.2315
     10 O          61.3207   90.5283   10.0229 O.2     1  UNL1       -0.2745
     11 C          60.5866   87.8778    9.6793 C.3     1  UNL1        0.1052
     12 C          59.9560   87.6255    8.3419 C.3     1  UNL1        0.1249
     13 C          59.1455   91.6105    4.4037 C.ar    1  UNL1        0.1388
     14 C          58.0423   91.0755    5.2678 C.ar    1  UNL1        0.0382
     15 C          58.3688   90.2299    6.4629 C.ar    1  UNL1        0.0180
     16 C          59.7984   89.9193    6.7940 C.ar    1  UNL1        0.0543
     17 C          60.9016   90.4543    5.9299 C.ar    1  UNL1        0.0180
     18 C          60.5751   91.3000    4.7348 C.ar    1  UNL1        0.0382
     19 C          59.9221   92.9895    2.3433 C.3     1  UNL1        0.2525
     20 O          58.8190   92.4561    3.2086 O.3     1  UNL1       -0.4714
     21 C          59.3908   86.4232    7.6456 C.2     1  UNL1        0.0692
     22 O          57.9051   86.2320    7.5660 O.co2   1  UNL1       -0.5475
     23 O          60.3111   85.4120    7.0289 O.co2   1  UNL1       -0.5475
     24 O          63.7177   83.2486   13.0695 O.3     1  UNL1       -0.4751
     25 C          64.5323   83.9078   14.1428 C.3     1  UNL1        0.2118
     26 C          63.8490   84.5874   15.2922 C.3     1  UNL1        0.0960
     27 C          63.8031   86.0853   15.3581 C.ar    1  UNL1        0.0960
     28 N          64.2770   87.0295   14.2932 N.ar    1  UNL1       -0.2129
     29 C          64.0421   88.4297   14.7774 C.ar    1  UNL1        0.2289
     30 O          63.4232   88.3508   16.1415 O.2     1  UNL1       -0.4392
     31 C          63.2755   86.9019   16.5004 C.ar    1  UNL1        0.1387
     32 C          62.7011   86.3639   17.7773 C.3     1  UNL1        0.0738
     33 C          64.3689   89.6879   14.0289 C.ar    1  UNL1        0.0535
     34 C          63.6558   90.0051   12.7479 C.ar    1  UNL1        0.0046
     35 C          63.9826   91.2633   11.9994 C.ar    1  UNL1        0.0002
     36 C          65.0224   92.2042   12.5319 C.ar    1  UNL1        0.0000
     37 C          65.7354   91.8869   13.8129 C.ar    1  UNL1        0.0002
     38 C          65.4087   90.6287   14.5614 C.ar    1  UNL1        0.0046
@<TRIPOS>UNITY_ATOM_ATTR
22 1
charge -1
@<TRIPOS>BOND
     1    19    20    1
     2    20    13    1
     3    13    14   ar
     4    14    15   ar
     5    15    16   ar
     6    16     8    1
     7     8     9   am
     8     9    10    2
     9     9    11    1
    10    11     7    1
    11     7     1    1
    12     1     2   ar
    13     2     3   ar
    14     3     4   ar
    15     4     5   ar
    16     5    24    1
    17    24    25    1
    18    25    26    1
    19    26    27    1
    20    27    28   ar
    21    28    29   ar
    22    29    33    1
    23    33    34   ar
    24    34    35   ar
    25    35    36   ar
    26    36    37   ar
    27    37    38   ar
    28    29    30   ar
    29    30    31   ar
    30    31    32    1
    31     5     6   ar
    32    11    12    1
    33    12    21    1
    34    21    22   ar
    35    21    23   ar
    36    16    17   ar
    37    17    18   ar
    38    18    13   ar
    39    12     8    1
    40     6     1   ar
    41    31    27   ar
    42    38    33   ar
@<TRIPOS>MOLECULE
*****
 38 42 0 0 0
SMALL
GASTEIGER

@<TRIPOS>ATOM
      1 C          61.1285   88.6400   11.0333 C.ar    1  UNL1       -0.0186
      2 C          62.2264   87.6178   11.0329 C.ar    1  UNL1       -0.0041
      3 C          62.2945   86.5907    9.9419 C.ar    1  UNL1        0.0028
      4 C          61.2648   86.5857    8.8512 C.ar    1  UNL1        0.0369
      5 C          60.1670   87.6078    8.8515 C.ar    1  UNL1        0.1383
      6 C          60.0988   88.6350    9.9425 C.ar    1  UNL1        0.0326
      7 C          61.0604   89.6671   12.1242 C.3     1  UNL1        0.0376
      8 N          64.1102   90.9531   13.5935 N.am    1  UNL1       -0.2546
      9 C          62.9549   90.1366   14.0921 C.2     1  UNL1        0.2315
     10 O          62.5843   89.5145   15.4058 O.2     1  UNL1       -0.2745
     11 C          62.3237   90.1998   12.7328 C.3     1  UNL1        0.1052
     12 C          63.4790   91.0163   12.2342 C.3     1  UNL1        0.1249
     13 C          67.9001   92.5510   15.4192 C.ar    1  UNL1        0.1388
     14 C          66.6230   92.5692   16.2057 C.ar    1  UNL1        0.0382
     15 C          65.3597   92.0366   15.5972 C.ar    1  UNL1        0.0180
     16 C          65.3735   91.4857   14.2021 C.ar    1  UNL1        0.0543
     17 C          66.6506   91.4675   13.4156 C.ar    1  UNL1        0.0180
     18 C          67.9139   92.0002   14.0241 C.ar    1  UNL1        0.0382
     19 C          69.4034   94.5633   16.0832 C.3     1  UNL1        0.2525
     20 O          69.1634   93.0837   16.0278 O.3     1  UNL1       -0.4714
     21 C          63.8496   91.6383   10.9205 C.2     1  UNL1        0.0692
     22 O          63.0332   91.3474    9.6961 O.co2   1  UNL1       -0.5475
     23 O          65.0364   92.5512   10.8312 O.co2   1  UNL1       -0.5475
     24 O          59.1373   87.6028    7.7607 O.3     1  UNL1       -0.4751
     25 C          59.3111   88.4864    6.5612 C.3     1  UNL1        0.2118
     26 C          59.0488   89.9592    6.6702 C.3     1  UNL1        0.0960
     27 C          59.2669   90.8498    5.4830 C.ar    1  UNL1        0.0960
     28 N          60.5903   91.1749    4.8562 N.ar    1  UNL1       -0.2129
     29 C          60.3414   92.0976    3.6999 C.ar    1  UNL1        0.2289
     30 O          58.8641   92.3426    3.6123 O.2     1  UNL1       -0.4392
     31 C          58.2001   91.5714    4.7142 C.ar    1  UNL1        0.1387
     32 C          56.7277   91.5293    4.9978 C.3     1  UNL1        0.0738
     33 C          61.3862   92.6740    2.7910 C.ar    1  UNL1        0.0535
     34 C          62.7684   92.0917    2.7729 C.ar    1  UNL1        0.0046
     35 C          63.8132   92.6681    1.8640 C.ar    1  UNL1        0.0002
     36 C          63.4758   93.8268    0.9733 C.ar    1  UNL1        0.0000
     37 C          62.0935   94.4091    0.9914 C.ar    1  UNL1        0.0002
     38 C          61.0487   93.8327    1.9003 C.ar    1  UNL1        0.0046
@<TRIPOS>UNITY_ATOM_ATTR
22 1
charge -1
@<TRIPOS>BOND
     1    19    20    1
     2    20    13    1
     3    13    14   ar
     4    14    15   ar
     5    15    16   ar
     6    16     8    1
     7     8     9   am
     8     9    10    2
     9     9    11    1
    10    11     7    1
    11     7     1    1
    12     1     2   ar
    13     2     3   ar
    14     3     4   ar
    15     4     5   ar
    16     5    24    1
    17    24    25    1
    18    25    26    1
    19    26    27    1
    20    27    28   ar
    21    28    29   ar
    22    29    33    1
    23    33    34   ar
    24    34    35   ar
    25    35    36   ar
    26    36    37   ar
    27    37    38   ar
    28    29    30   ar
    29    30    31   ar
    30    31    32    1
    31     5     6   ar
    32    11    12    1
    33    12    21    1
    34    21    22   ar
    35    21    23   ar
    36    16    17   ar
    37    17    18   ar
    38    18    13   ar
    39    12     8    1
    40     6     1   ar
    41    31    27   ar
    42    38    33   ar
@<TRIPOS>MOLECULE
*****
 38 42 0 0 0
SMALL
GASTEIGER

@<TRIPOS>ATOM
      1 C          61.6338   89.7406   10.1071 C.ar    1  UNL1       -0.0186
      2 C          60.4499   89.8096   11.0257 C.ar    1  UNL1       -0.0041
      3 C          59.5675   88.6096   11.2034 C.ar    1  UNL1        0.0028
      4 C          59.8690   87.3407   10.4625 C.ar    1  UNL1        0.0369
      5 C          61.0528   87.2717    9.5439 C.ar    1  UNL1        0.1383
      6 C          61.9352   88.4717    9.3662 C.ar    1  UNL1        0.0326
      7 C          62.5161   90.9405    9.9295 C.3     1  UNL1        0.0376
      8 N          65.0490   91.7075   12.4013 N.am    1  UNL1       -0.2546
      9 C          64.7046   92.2302   11.0381 C.2     1  UNL1        0.2315
     10 O          65.2667   93.2871   10.1342 O.2     1  UNL1       -0.2745
     11 C          63.5652   91.2582   10.9534 C.3     1  UNL1        0.1052
     12 C          63.9096   90.7355   12.3165 C.3     1  UNL1        0.1249
     13 C          68.1964   92.6606   15.4730 C.ar    1  UNL1        0.1388
     14 C          68.6002   92.2444   14.0897 C.ar    1  UNL1        0.0382
     15 C          67.5510   91.9267   13.0658 C.ar    1  UNL1        0.0180
     16 C          66.0981   92.0252   13.4252 C.ar    1  UNL1        0.0543
     17 C          65.6943   92.4413   14.8086 C.ar    1  UNL1        0.0180
     18 C          66.7435   92.7590   15.8325 C.ar    1  UNL1        0.0382
     19 C          69.9965   94.2747   16.4240 C.3     1  UNL1        0.2525
     20 O          69.2456   92.9782   16.4969 O.3     1  UNL1       -0.4714
     21 C          63.3475   89.6786   13.2204 C.2     1  UNL1        0.0692
     22 O          63.2866   88.2524   12.7596 O.co2   1  UNL1       -0.5475
     23 O          62.8462   90.0479   14.5850 O.co2   1  UNL1       -0.5475
     24 O          61.3543   86.0028    8.8030 O.3     1  UNL1       -0.4751
     25 C          62.7774   85.6046    8.5457 C.3     1  UNL1        0.2118
     26 C          63.2872   84.2829    9.0388 C.3     1  UNL1        0.0960
     27 C          63.3229   83.9945   10.5104 C.ar    1  UNL1        0.0960
     28 N          63.2423   85.0113   11.6102 N.ar    1  UNL1       -0.2129
     29 C          63.3151   84.2840   12.9201 C.ar    1  UNL1        0.2289
     30 O          63.4407   82.8177   12.6298 O.2     1  UNL1       -0.4392
     31 C          63.4456   82.6388   11.1405 C.ar    1  UNL1        0.1387
     32 C          63.5541   81.3335   10.4096 C.3     1  UNL1        0.0738
     33 C          63.2701   84.9125   14.2813 C.ar    1  UNL1        0.0535
     34 C          62.2828   84.4254   15.3001 C.ar    1  UNL1        0.0046
     35 C          62.2378   85.0540   16.6613 C.ar    1  UNL1        0.0002
     36 C          63.1801   86.1697   17.0037 C.ar    1  UNL1        0.0000
     37 C          64.1675   86.6568   15.9849 C.ar    1  UNL1        0.0002
     38 C          64.2124   86.0282   14.6237 C.ar    1  UNL1        0.0046
@<TRIPOS>UNITY_ATOM_ATTR
22 1
charge -1
@<TRIPOS>BOND
     1    19    20    1
     2    20    13    1
     3    13    14   ar
     4    14    15   ar
     5    15    16   ar
     6    16     8    1
     7     8     9   am
     8     9    10    2
     9     9    11    1
    10    11     7    1
    11     7     1    1
    12     1     2   ar
    13     2     3   ar
    14     3     4   ar
    15     4     5   ar
    16     5    24    1
    17    24    25    1
    18    25    26    1
    19    26    27    1
    20    27    28   ar
    21    28    29   ar
    22    29    33    1
    23    33    34   ar
    24    34    35   ar
    25    35    36   ar
    26    36    37   ar
    27    37    38   ar
    28    29    30   ar
    29    30    31   ar
    30    31    32    1
    31     5     6   ar
    32    11    12    1
    33    12    21    1
    34    21    22   ar
    35    21    23   ar
    36    16    17   ar
    37    17    18   ar
    38    18    13   ar
    39    12     8    1
    40     6     1   ar
    41    31    27   ar
    42    38    33   ar
@<TRIPOS>MOLECULE
*****
 38 42 0 0 0
SMALL
GASTEIGER

@<TRIPOS>ATOM
      1 C          60.7966   88.4467   10.7575 C.ar    1  UNL1       -0.0186
      2 C          59.5739   88.2327    9.9153 C.ar    1  UNL1       -0.0041
      3 C          59.5919   87.2175    8.8113 C.ar    1  UNL1        0.0028
      4 C          60.8326   86.4162    8.5493 C.ar    1  UNL1        0.0369
      5 C          62.0553   86.6302    9.3914 C.ar    1  UNL1        0.1383
      6 C          62.0373   87.6454   10.4956 C.ar    1  UNL1        0.0326
      7 C          60.7786   89.4618   11.8616 C.3     1  UNL1        0.0376
      8 N          63.8816   90.9070   13.0433 N.am    1  UNL1       -0.2546
      9 C          62.7689   90.1230   13.6736 C.2     1  UNL1        0.2315
     10 O          62.4806   89.6129   15.0544 O.2     1  UNL1       -0.2745
     11 C          62.0639   90.0605   12.3511 C.3     1  UNL1        0.1052
     12 C          63.1766   90.8445   11.7208 C.3     1  UNL1        0.1249
     13 C          67.7375   92.7029   14.5118 C.ar    1  UNL1        0.1388
     14 C          66.9187   93.4236   13.4822 C.ar    1  UNL1        0.0382
     15 C          65.6334   92.8250   12.9927 C.ar    1  UNL1        0.0180
     16 C          65.1669   91.5057   13.5328 C.ar    1  UNL1        0.0543
     17 C          65.9857   90.7850   14.5625 C.ar    1  UNL1        0.0180
     18 C          67.2710   91.3836   15.0520 C.ar    1  UNL1        0.0382
     19 C          69.0182   94.2231   16.1849 C.3     1  UNL1        0.2525
     20 O          69.0229   93.3016   15.0013 O.3     1  UNL1       -0.4714
     21 C          63.4648   91.3546   10.3400 C.2     1  UNL1        0.0692
     22 O          64.6377   92.2596   10.1045 O.co2   1  UNL1       -0.5475
     23 O          62.5803   90.9598    9.1947 O.co2   1  UNL1       -0.5475
     24 O          63.2960   85.8289    9.1294 O.3     1  UNL1       -0.4751
     25 C          63.1945   84.3582    8.8528 C.3     1  UNL1        0.2118
     26 C          63.8502   83.3744    9.7760 C.3     1  UNL1        0.0960
     27 C          63.5376   83.3990   11.2429 C.ar    1  UNL1        0.0960
     28 N          63.6518   84.5891   12.1488 N.ar    1  UNL1       -0.2129
     29 C          63.2407   84.1635   13.5272 C.ar    1  UNL1        0.2289
     30 O          62.8725   82.7104   13.4731 O.2     1  UNL1       -0.4392
     31 C          63.0560   82.2379   12.0613 C.ar    1  UNL1        0.1387
     32 C          62.8025   80.8484   11.5566 C.3     1  UNL1        0.0738
     33 C          63.2042   85.0376   14.7457 C.ar    1  UNL1        0.0535
     34 C          64.0729   86.2582   14.8194 C.ar    1  UNL1        0.0046
     35 C          64.0365   87.1322   16.0379 C.ar    1  UNL1        0.0002
     36 C          63.1312   86.7856   17.1826 C.ar    1  UNL1        0.0000
     37 C          62.2625   85.5650   17.1089 C.ar    1  UNL1        0.0002
     38 C          62.2990   84.6910   15.8904 C.ar    1  UNL1        0.0046
@<TRIPOS>UNITY_ATOM_ATTR
22 1
charge -1
@<TRIPOS>BOND
     1    19    20    1
     2    20    13    1
     3    13    14   ar
     4    14    15   ar
     5    15    16   ar
     6    16     8    1
     7     8     9   am
     8     9    10    2
     9     9    11    1
    10    11     7    1
    11     7     1    1
    12     1     2   ar
    13     2     3   ar
    14     3     4   ar
    15     4     5   ar
    16     5    24    1
    17    24    25    1
    18    25    26    1
    19    26    27    1
    20    27    28   ar
    21    28    29   ar
    22    29    33    1
    23    33    34   ar
    24    34    35   ar
    25    35    36   ar
    26    36    37   ar
    27    37    38   ar
    28    29    30   ar
    29    30    31   ar
    30    31    32    1
    31     5     6   ar
    32    11    12    1
    33    12    21    1
    34    21    22   ar
    35    21    23   ar
    36    16    17   ar
    37    17    18   ar
    38    18    13   ar
    39    12     8    1
    40     6     1   ar
    41    31    27   ar
    42    38    33   ar
@<TRIPOS>MOLECULE
*****
 38 42 0 0 0
SMALL
GASTEIGER

@<TRIPOS>ATOM
      1 C          61.1306   88.5310   10.8078 C.ar    1  UNL1       -0.0186
      2 C          62.2510   87.5436   10.6666 C.ar    1  UNL1       -0.0041
      3 C          62.2505   86.5664    9.5286 C.ar    1  UNL1        0.0028
      4 C          61.1297   86.5766    8.5317 C.ar    1  UNL1        0.0369
      5 C          60.0094   87.5639    8.6729 C.ar    1  UNL1        0.1383
      6 C          60.0098   88.5412    9.8109 C.ar    1  UNL1        0.0326
      7 C          61.1311   89.5081   11.9458 C.3     1  UNL1        0.0376
      8 N          64.2544   90.9062   13.1307 N.am    1  UNL1       -0.2546
      9 C          63.4330   91.0506   11.8839 C.2     1  UNL1        0.2315
     10 O          63.5650   91.8340   10.6115 O.2     1  UNL1       -0.2745
     11 C          62.4248   90.0872   12.4366 C.3     1  UNL1        0.1052
     12 C          63.2462   89.9428   13.6834 C.3     1  UNL1        0.1249
     13 C          68.1356   92.6435   14.6031 C.ar    1  UNL1        0.1388
     14 C          67.9494   92.3542   13.1431 C.ar    1  UNL1        0.0382
     15 C          66.6557   91.7751   12.6523 C.ar    1  UNL1        0.0180
     16 C          65.5482   91.4853   13.6215 C.ar    1  UNL1        0.0543
     17 C          65.7344   91.7746   15.0815 C.ar    1  UNL1        0.0180
     18 C          67.0281   92.3537   15.5722 C.ar    1  UNL1        0.0382
     19 C          69.4220   94.2818   16.1559 C.3     1  UNL1        0.2525
     20 O          69.4294   93.2226   15.0938 O.3     1  UNL1       -0.4714
     21 C          63.1142   89.1594   14.9557 C.2     1  UNL1        0.0692
     22 O          62.2668   89.6858   16.0760 O.co2   1  UNL1       -0.5475
     23 O          63.8294   87.8498   15.1079 O.co2   1  UNL1       -0.5475
     24 O          58.8886   87.5741    7.6760 O.3     1  UNL1       -0.4751
     25 C          58.9457   88.4942    6.4927 C.3     1  UNL1        0.2118
     26 C          59.3980   89.9136    6.6675 C.3     1  UNL1        0.0960
     27 C          59.5086   90.8177    5.4756 C.ar    1  UNL1        0.0960
     28 N          60.7814   91.2318    4.7983 N.ar    1  UNL1       -0.2129
     29 C          60.4254   92.1363    3.6558 C.ar    1  UNL1        0.2289
     30 O          58.9326   92.2811    3.6271 O.2     1  UNL1       -0.4392
     31 C          58.3661   91.4662    4.7517 C.ar    1  UNL1        0.1387
     32 C          56.9123   91.3245    5.0927 C.3     1  UNL1        0.0738
     33 C          61.3923   92.7825    2.7085 C.ar    1  UNL1        0.0535
     34 C          62.7842   92.2402    2.5717 C.ar    1  UNL1        0.0046
     35 C          63.7511   92.8864    1.6244 C.ar    1  UNL1        0.0002
     36 C          63.3262   94.0749    0.8139 C.ar    1  UNL1        0.0000
     37 C          61.9343   94.6172    0.9507 C.ar    1  UNL1        0.0002
     38 C          60.9674   93.9710    1.8980 C.ar    1  UNL1        0.0046
@<TRIPOS>UNITY_ATOM_ATTR
22 1
charge -1
@<TRIPOS>BOND
     1    19    20    1
     2    20    13    1
     3    13    14   ar
     4    14    15   ar
     5    15    16   ar
     6    16     8    1
     7     8     9   am
     8     9    10    2
     9     9    11    1
    10    11     7    1
    11     7     1    1
    12     1     2   ar
    13     2     3   ar
    14     3     4   ar
    15     4     5   ar
    16     5    24    1
    17    24    25    1
    18    25    26    1
    19    26    27    1
    20    27    28   ar
    21    28    29   ar
    22    29    33    1
    23    33    34   ar
    24    34    35   ar
    25    35    36   ar
    26    36    37   ar
    27    37    38   ar
    28    29    30   ar
    29    30    31   ar
    30    31    32    1
    31     5     6   ar
    32    11    12    1
    33    12    21    1
    34    21    22   ar
    35    21    23   ar
    36    16    17   ar
    37    17    18   ar
    38    18    13   ar
    39    12     8    1
    40     6     1   ar
    41    31    27   ar
    42    38    33   ar
@<TRIPOS>MOLECULE
*****
 38 42 0 0 0
SMALL
GASTEIGER

@<TRIPOS>ATOM
      1 C          61.6233   86.3658   10.0124 C.ar    1  UNL1       -0.0186
      2 C          60.9163   86.5555    8.7031 C.ar    1  UNL1       -0.0041
      3 C          61.3115   85.7346    7.5115 C.ar    1  UNL1        0.0028
      4 C          62.4137   84.7240    7.6292 C.ar    1  UNL1        0.0369
      5 C          63.1206   84.5343    8.9384 C.ar    1  UNL1        0.1383
      6 C          62.7254   85.3552   10.1301 C.ar    1  UNL1        0.0326
      7 C          61.2280   87.1867   11.2040 C.3     1  UNL1        0.0376
      8 N          63.4961   89.6885   12.5120 N.am    1  UNL1       -0.2546
      9 C          63.2542   88.2325   12.7797 C.2     1  UNL1        0.2315
     10 O          63.8516   87.2097   13.7000 O.2     1  UNL1       -0.2745
     11 C          62.1675   88.2230   11.7458 C.3     1  UNL1        0.1052
     12 C          62.4093   89.6790   11.4781 C.3     1  UNL1        0.1249
     13 C          66.3144   92.7974   14.1374 C.ar    1  UNL1        0.1388
     14 C          65.8702   91.6594   15.0078 C.ar    1  UNL1        0.0382
     15 C          64.9308   90.6231   14.4660 C.ar    1  UNL1        0.0180
     16 C          64.4355   90.7248   13.0538 C.ar    1  UNL1        0.0543
     17 C          64.8797   91.8628   12.1834 C.ar    1  UNL1        0.0180
     18 C          65.8191   92.8991   12.7252 C.ar    1  UNL1        0.0382
     19 C          68.2482   93.4635   15.7394 C.3     1  UNL1        0.2525
     20 O          67.2538   93.8337   14.6792 O.3     1  UNL1       -0.4714
     21 C          61.8119   90.7018   10.5577 C.2     1  UNL1        0.0692
     22 O          60.3222   90.8578   10.4758 O.co2   1  UNL1       -0.5475
     23 O          62.7040   91.5684    9.7194 O.co2   1  UNL1       -0.5475
     24 O          64.2228   83.5236    9.0561 O.3     1  UNL1       -0.4751
     25 C          64.4582   82.8189   10.3592 C.3     1  UNL1        0.2118
     26 C          63.3312   82.0956   11.0350 C.3     1  UNL1        0.0960
     27 C          63.0010   82.3933   12.4676 C.ar    1  UNL1        0.0960
     28 N          63.1096   83.7309   13.1378 N.ar    1  UNL1       -0.2129
     29 C          62.6799   83.5700   14.5659 C.ar    1  UNL1        0.2289
     30 O          62.3057   82.1330   14.7783 O.2     1  UNL1       -0.4392
     31 C          62.5041   81.4058   13.4815 C.ar    1  UNL1        0.1387
     32 C          62.2503   79.9472   13.2407 C.3     1  UNL1        0.0738
     33 C          62.6327   84.6555   15.6001 C.ar    1  UNL1        0.0535
     34 C          63.8946   85.1015   16.2774 C.ar    1  UNL1        0.0046
     35 C          63.8473   86.1869   17.3116 C.ar    1  UNL1        0.0002
     36 C          62.5383   86.8264   17.6684 C.ar    1  UNL1        0.0000
     37 C          61.2764   86.3804   16.9910 C.ar    1  UNL1        0.0002
     38 C          61.3236   85.2950   15.9569 C.ar    1  UNL1        0.0046
@<TRIPOS>UNITY_ATOM_ATTR
22 1
charge -1
@<TRIPOS>BOND
     1    19    20    1
     2    20    13    1
     3    13    14   ar
     4    14    15   ar
     5    15    16   ar
     6    16     8    1
     7     8     9   am
     8     9    10    2
     9     9    11    1
    10    11     7    1
    11     7     1    1
    12     1     2   ar
    13     2     3   ar
    14     3     4   ar
    15     4     5   ar
    16     5    24    1
    17    24    25    1
    18    25    26    1
    19    26    27    1
    20    27    28   ar
    21    28    29   ar
    22    29    33    1
    23    33    34   ar
    24    34    35   ar
    25    35    36   ar
    26    36    37   ar
    27    37    38   ar
    28    29    30   ar
    29    30    31   ar
    30    31    32    1
    31     5     6   ar
    32    11    12    1
    33    12    21    1
    34    21    22   ar
    35    21    23   ar
    36    16    17   ar
    37    17    18   ar
    38    18    13   ar
    39    12     8    1
    40     6     1   ar
    41    31    27   ar
    42    38    33   ar
