@<TRIPOS>MOLECULE
*****
 28 30 0 0 0
SMALL
GASTEIGER

@<TRIPOS>ATOM
      1 C          62.7550   89.7837   11.9462 C.ar    1  UNL1        0.0660
      2 C          62.9611   90.6764   10.7585 C.ar    1  UNL1        0.0190
      3 C          63.9718   91.7832   10.8186 C.ar    1  UNL1        0.0388
      4 C          64.7765   91.9971   12.0662 C.ar    1  UNL1        0.1454
      5 C          64.5704   91.1044   13.2539 C.ar    1  UNL1        0.0399
      6 C          63.5597   89.9977   13.1939 C.ar    1  UNL1        0.0316
      7 C          63.3536   89.1049   14.3816 C.2     1  UNL1        0.0742
      8 O          62.6384   89.6230   15.5941 O.co2   1  UNL1       -0.5445
      9 O          63.8627   87.6942   14.3568 O.co2   1  UNL1       -0.5445
     10 N          61.7443   88.6770   11.8862 N.pl3   1  UNL1       -0.2150
     11 H          61.1175   88.5417   12.6332 H       1  UNL1        0.1737
     12 S          61.6885   87.7764   10.6879 S.O2    1  UNL1        0.0736
     13 O          62.7607   86.9145   11.2858 O.2     1  UNL1       -0.1499
     14 O          60.6164   88.6383   10.0900 O.2     1  UNL1       -0.1499
     15 C          61.4655   84.1740    5.8948 C.3     1  UNL1        0.0310
     16 C          61.5213   85.0746    7.0931 C.ar    1  UNL1       -0.0218
     17 C          60.3226   85.8924    7.4731 C.ar    1  UNL1       -0.0029
     18 C          60.3784   86.7930    8.6713 C.ar    1  UNL1        0.0199
     19 C          61.6328   86.8758    9.4896 C.ar    1  UNL1        0.1251
     20 C          62.8314   86.0580    9.1097 C.ar    1  UNL1        0.0199
     21 C          62.7757   85.1574    7.9114 C.ar    1  UNL1       -0.0029
     22 O          65.7872   93.1039   12.1263 O.3     1  UNL1       -0.4535
     23 C          66.6027   93.4414   10.9134 C.ar    1  UNL1        0.1453
     24 C          66.5255   94.8153   10.3163 C.ar    1  UNL1        0.0375
     25 C          67.3410   95.1529    9.1034 C.ar    1  UNL1        0.0031
     26 C          68.2337   94.1165    8.4877 C.ar    1  UNL1        0.0002
     27 C          68.3109   92.7427    9.0848 C.ar    1  UNL1        0.0031
     28 C          67.4954   92.4051   10.2977 C.ar    1  UNL1        0.0375
@<TRIPOS>UNITY_ATOM_ATTR
8 1
charge -1
@<TRIPOS>BOND
     1    15    16    1
     2    16    17   ar
     3    17    18   ar
     4    18    19   ar
     5    19    12    1
     6    12    13    2
     7    12    14    2
     8    12    10    1
     9    10     1    1
    10     1     2   ar
    11     2     3   ar
    12     3     4   ar
    13     4    22    1
    14    22    23    1
    15    23    24   ar
    16    24    25   ar
    17    25    26   ar
    18    26    27   ar
    19    27    28   ar
    20     4     5   ar
    21     5     6   ar
    22     6     7    1
    23     7     8   ar
    24     7     9   ar
    25    19    20   ar
    26    20    21   ar
    27    21    16   ar
    28     6     1   ar
    29    28    23   ar
    30    10    11    1
@<TRIPOS>MOLECULE
*****
 28 30 0 0 0
SMALL
GASTEIGER

@<TRIPOS>ATOM
      1 C          62.7188   89.8069   11.9515 C.ar    1  UNL1        0.0660
      2 C          62.9978   90.7122   10.7885 C.ar    1  UNL1        0.0190
      3 C          64.0633   91.7627   10.8945 C.ar    1  UNL1        0.0388
      4 C          64.8499   91.9078   12.1634 C.ar    1  UNL1        0.1454
      5 C          64.5709   91.0025   13.3264 C.ar    1  UNL1        0.0399
      6 C          63.5054   89.9521   13.2205 C.ar    1  UNL1        0.0316
      7 C          63.2265   89.0467   14.3835 C.2     1  UNL1        0.0742
      8 O          62.3632   89.5226   15.5142 O.co2   1  UNL1       -0.5445
      9 O          63.8108   87.6656   14.4159 O.co2   1  UNL1       -0.5445
     10 N          61.6533   88.7565   11.8456 N.pl3   1  UNL1       -0.2150
     11 H          60.9753   88.6698   12.5541 H       1  UNL1        0.1737
     12 S          61.6209   87.8380   10.6602 S.O2    1  UNL1        0.0736
     13 O          60.5172   88.6553   10.0571 O.2     1  UNL1       -0.1499
     14 O          62.7246   87.0206   11.2632 O.2     1  UNL1       -0.1499
     15 C          61.4910   84.1641    5.9182 C.3     1  UNL1        0.0310
     16 C          61.5235   85.0825    7.1036 C.ar    1  UNL1       -0.0218
     17 C          60.3009   85.8666    7.4787 C.ar    1  UNL1       -0.0029
     18 C          60.3334   86.7851    8.6642 C.ar    1  UNL1        0.0199
     19 C          61.5884   86.9195    9.4746 C.ar    1  UNL1        0.1251
     20 C          62.8110   86.1354    9.0996 C.ar    1  UNL1        0.0199
     21 C          62.7785   85.2169    7.9141 C.ar    1  UNL1       -0.0029
     22 O          65.9154   92.9583   12.2694 O.3     1  UNL1       -0.4535
     23 C          66.9260   92.8925   13.3759 C.ar    1  UNL1        0.1453
     24 C          66.7527   93.7402   14.6013 C.ar    1  UNL1        0.0375
     25 C          67.7633   93.6744   15.7078 C.ar    1  UNL1        0.0031
     26 C          68.9472   92.7609   15.5889 C.ar    1  UNL1        0.0002
     27 C          69.1204   91.9133   14.3636 C.ar    1  UNL1        0.0031
     28 C          68.1098   91.9791   13.2571 C.ar    1  UNL1        0.0375
@<TRIPOS>UNITY_ATOM_ATTR
8 1
charge -1
@<TRIPOS>BOND
     1    15    16    1
     2    16    17   ar
     3    17    18   ar
     4    18    19   ar
     5    19    12    1
     6    12    13    2
     7    12    14    2
     8    12    10    1
     9    10     1    1
    10     1     2   ar
    11     2     3   ar
    12     3     4   ar
    13     4    22    1
    14    22    23    1
    15    23    24   ar
    16    24    25   ar
    17    25    26   ar
    18    26    27   ar
    19    27    28   ar
    20     4     5   ar
    21     5     6   ar
    22     6     7    1
    23     7     8   ar
    24     7     9   ar
    25    19    20   ar
    26    20    21   ar
    27    21    16   ar
    28     6     1   ar
    29    28    23   ar
    30    10    11    1
@<TRIPOS>MOLECULE
*****
 28 30 0 0 0
SMALL
GASTEIGER

@<TRIPOS>ATOM
      1 C          63.3923   90.5459   12.5624 C.ar    1  UNL1        0.0660
      2 C          63.7652   91.0082   11.1850 C.ar    1  UNL1        0.0190
      3 C          64.8418   92.0371   11.0050 C.ar    1  UNL1        0.0388
      4 C          65.5455   92.6036   12.2024 C.ar    1  UNL1        0.1454
      5 C          65.1726   92.1414   13.5798 C.ar    1  UNL1        0.0399
      6 C          64.0960   91.1125   13.7598 C.ar    1  UNL1        0.0316
      7 C          63.7231   90.6503   15.1372 C.2     1  UNL1        0.0742
      8 O          63.4815   91.6540   16.2254 O.co2   1  UNL1       -0.5445
      9 O          63.5919   89.1843   15.4265 O.co2   1  UNL1       -0.5445
     10 N          62.3157   89.5171   12.7424 N.pl3   1  UNL1       -0.2150
     11 H          61.4695   89.7618   13.1821 H       1  UNL1        0.1737
     12 S          62.5284   88.1154   12.2525 S.O2    1  UNL1        0.0736
     13 O          61.2477   88.1927   11.4755 O.2     1  UNL1       -0.1499
     14 O          63.8091   88.0382   13.0295 O.2     1  UNL1       -0.1499
     15 C          63.3791   82.5086   10.2927 C.3     1  UNL1        0.0310
     16 C          63.1664   83.9103   10.7827 C.ar    1  UNL1       -0.0218
     17 C          62.6945   84.9727    9.8347 C.ar    1  UNL1       -0.0029
     18 C          62.4819   86.3744   10.3246 C.ar    1  UNL1        0.0199
     19 C          62.7411   86.7137   11.7626 C.ar    1  UNL1        0.1251
     20 C          63.2130   85.6513   12.7105 C.ar    1  UNL1        0.0199
     21 C          63.4257   84.2496   12.2206 C.ar    1  UNL1       -0.0029
     22 O          66.6222   93.6325   12.0225 O.3     1  UNL1       -0.4535
     23 C          66.6276   94.5071   10.8038 C.ar    1  UNL1        0.1453
     24 C          67.3999   94.0926    9.5866 C.ar    1  UNL1        0.0375
     25 C          67.4053   94.9672    8.3679 C.ar    1  UNL1        0.0031
     26 C          66.6384   96.2564    8.3666 C.ar    1  UNL1        0.0002
     27 C          65.8661   96.6709    9.5838 C.ar    1  UNL1        0.0031
     28 C          65.8607   95.7963   10.8025 C.ar    1  UNL1        0.0375
@<TRIPOS>UNITY_ATOM_ATTR
8 1
charge -1
@<TRIPOS>BOND
     1    15    16    1
     2    16    17   ar
     3    17    18   ar
     4    18    19   ar
     5    19    12    1
     6    12    13    2
     7    12    14    2
     8    12    10    1
     9    10     1    1
    10     1     2   ar
    11     2     3   ar
    12     3     4   ar
    13     4    22    1
    14    22    23    1
    15    23    24   ar
    16    24    25   ar
    17    25    26   ar
    18    26    27   ar
    19    27    28   ar
    20     4     5   ar
    21     5     6   ar
    22     6     7    1
    23     7     8   ar
    24     7     9   ar
    25    19    20   ar
    26    20    21   ar
    27    21    16   ar
    28     6     1   ar
    29    28    23   ar
    30    10    11    1
@<TRIPOS>MOLECULE
*****
 28 30 0 0 0
SMALL
GASTEIGER

@<TRIPOS>ATOM
      1 C          64.7059   91.7012   14.1486 C.ar    1  UNL1        0.0660
      2 C          64.3411   91.5967   12.6974 C.ar    1  UNL1        0.0190
      3 C          65.2152   92.2315   11.6567 C.ar    1  UNL1        0.0388
      4 C          66.4541   92.9707   12.0672 C.ar    1  UNL1        0.1454
      5 C          66.8189   93.0753   13.5184 C.ar    1  UNL1        0.0399
      6 C          65.9449   92.4405   14.5590 C.ar    1  UNL1        0.0316
      7 C          66.3097   92.5450   16.0102 C.2     1  UNL1        0.0742
      8 O          67.7515   92.5306   16.4240 O.co2   1  UNL1       -0.5445
      9 O          65.2329   92.6640   17.0476 O.co2   1  UNL1       -0.5445
     10 N          63.8319   91.0664   15.1893 N.pl3   1  UNL1       -0.2150
     11 H          63.2931   91.6302   15.7901 H       1  UNL1        0.1737
     12 S          63.7788   89.5726   15.3144 S.O2    1  UNL1        0.0736
     13 O          62.4730   89.6802   16.0448 O.2     1  UNL1       -0.1499
     14 O          65.0845   89.4650   14.5841 O.2     1  UNL1       -0.1499
     15 C          63.5661   83.5973   15.8154 C.3     1  UNL1        0.0310
     16 C          63.6193   85.0911   15.6901 C.ar    1  UNL1       -0.0218
     17 C          63.1102   85.9558   16.8051 C.ar    1  UNL1       -0.0029
     18 C          63.1634   87.4496   16.6798 C.ar    1  UNL1        0.0199
     19 C          63.7256   88.0787   15.4396 C.ar    1  UNL1        0.1251
     20 C          64.2347   87.2141   14.3247 C.ar    1  UNL1        0.0199
     21 C          64.1815   85.7202   14.4499 C.ar    1  UNL1       -0.0029
     22 O          67.3282   93.6056   11.0264 O.3     1  UNL1       -0.4535
     23 C          66.7796   94.6884   10.1452 C.ar    1  UNL1        0.1453
     24 C          67.3795   94.9297    8.7917 C.ar    1  UNL1        0.0375
     25 C          66.8309   96.0125    7.9104 C.ar    1  UNL1        0.0031
     26 C          65.6825   96.8540    8.3827 C.ar    1  UNL1        0.0002
     27 C          65.0827   96.6127    9.7362 C.ar    1  UNL1        0.0031
     28 C          65.6313   95.5299   10.6174 C.ar    1  UNL1        0.0375
@<TRIPOS>UNITY_ATOM_ATTR
8 1
charge -1
@<TRIPOS>BOND
     1    15    16    1
     2    16    17   ar
     3    17    18   ar
     4    18    19   ar
     5    19    12    1
     6    12    13    2
     7    12    14    2
     8    12    10    1
     9    10     1    1
    10     1     2   ar
    11     2     3   ar
    12     3     4   ar
    13     4    22    1
    14    22    23    1
    15    23    24   ar
    16    24    25   ar
    17    25    26   ar
    18    26    27   ar
    19    27    28   ar
    20     4     5   ar
    21     5     6   ar
    22     6     7    1
    23     7     8   ar
    24     7     9   ar
    25    19    20   ar
    26    20    21   ar
    27    21    16   ar
    28     6     1   ar
    29    28    23   ar
    30    10    11    1
@<TRIPOS>MOLECULE
*****
 28 30 0 0 0
SMALL
GASTEIGER

@<TRIPOS>ATOM
      1 C          62.2074   87.8113   11.6316 C.ar    1  UNL1        0.0660
      2 C          63.1055   87.0313   12.5453 C.ar    1  UNL1        0.0190
      3 C          63.3659   85.5780   12.2800 C.ar    1  UNL1        0.0388
      4 C          62.7282   84.9048   11.1010 C.ar    1  UNL1        0.1454
      5 C          61.8300   85.6848   10.1873 C.ar    1  UNL1        0.0399
      6 C          61.5696   87.1380   10.4526 C.ar    1  UNL1        0.0316
      7 C          60.6714   87.9180    9.5389 C.2     1  UNL1        0.0742
      8 O          60.9620   89.3619    9.2545 O.co2   1  UNL1       -0.5445
      9 O          59.4827   87.2542    8.9095 O.co2   1  UNL1       -0.5445
     10 N          61.9470   89.2644   11.8969 N.pl3   1  UNL1       -0.2150
     11 H          61.0709   89.6558   11.6765 H       1  UNL1        0.1737
     12 S          63.0214   90.1214   12.4979 S.O2    1  UNL1        0.0736
     13 O          62.5017   89.8105   13.8702 O.2     1  UNL1       -0.1499
     14 O          63.5411   90.4322   11.1256 O.2     1  UNL1       -0.1499
     15 C          67.3191   93.5491   14.9022 C.3     1  UNL1        0.0310
     16 C          66.2447   92.6922   14.3012 C.ar    1  UNL1       -0.0218
     17 C          65.8773   92.8537   12.8558 C.ar    1  UNL1       -0.0029
     18 C          64.8029   91.9968   12.2547 C.ar    1  UNL1        0.0199
     19 C          64.0958   90.9783   13.0990 C.ar    1  UNL1        0.1251
     20 C          64.4632   90.8168   14.5443 C.ar    1  UNL1        0.0199
     21 C          65.5376   91.6737   15.1454 C.ar    1  UNL1       -0.0029
     22 O          62.9885   83.4516   10.8357 O.3     1  UNL1       -0.4535
     23 C          62.7167   82.4338   11.9035 C.ar    1  UNL1        0.1453
     24 C          62.3285   82.8788   13.2824 C.ar    1  UNL1        0.0375
     25 C          62.0566   81.8611   14.3502 C.ar    1  UNL1        0.0031
     26 C          62.1729   80.3982   14.0391 C.ar    1  UNL1        0.0002
     27 C          62.5610   79.9533   12.6603 C.ar    1  UNL1        0.0031
     28 C          62.8329   80.9710   11.5925 C.ar    1  UNL1        0.0375
@<TRIPOS>UNITY_ATOM_ATTR
8 1
charge -1
@<TRIPOS>BOND
     1    15    16    1
     2    16    17   ar
     3    17    18   ar
     4    18    19   ar
     5    19    12    1
     6    12    13    2
     7    12    14    2
     8    12    10    1
     9    10     1    1
    10     1     2   ar
    11     2     3   ar
    12     3     4   ar
    13     4    22    1
    14    22    23    1
    15    23    24   ar
    16    24    25   ar
    17    25    26   ar
    18    26    27   ar
    19    27    28   ar
    20     4     5   ar
    21     5     6   ar
    22     6     7    1
    23     7     8   ar
    24     7     9   ar
    25    19    20   ar
    26    20    21   ar
    27    21    16   ar
    28     6     1   ar
    29    28    23   ar
    30    10    11    1
@<TRIPOS>MOLECULE
*****
 28 30 0 0 0
SMALL
GASTEIGER

@<TRIPOS>ATOM
      1 C          62.9794   89.2599   12.5121 C.ar    1  UNL1        0.0660
      2 C          63.6321   88.2075   13.3584 C.ar    1  UNL1        0.0190
      3 C          63.5809   86.7685   12.9378 C.ar    1  UNL1        0.0388
      4 C          62.8770   86.3820   11.6709 C.ar    1  UNL1        0.1454
      5 C          62.2242   87.4345   10.8246 C.ar    1  UNL1        0.0399
      6 C          62.2754   88.8734   11.2451 C.ar    1  UNL1        0.0316
      7 C          61.6227   89.9258   10.3988 C.2     1  UNL1        0.0742
      8 O          60.1682   89.8122   10.0499 O.co2   1  UNL1       -0.5445
      9 O          62.4244   91.0919    9.9012 O.co2   1  UNL1       -0.5445
     10 N          63.0306   90.6988   12.9326 N.pl3   1  UNL1       -0.2150
     11 H          62.2445   91.2775   12.8041 H       1  UNL1        0.1737
     12 S          64.2794   91.2560   13.5491 S.O2    1  UNL1        0.0736
     13 O          63.6391   91.1920   14.9040 O.2     1  UNL1       -0.1499
     14 O          64.9196   91.3200   12.1941 O.2     1  UNL1       -0.1499
     15 C          69.2746   93.4848   16.0149 C.3     1  UNL1        0.0310
     16 C          68.0258   92.9276   15.3984 C.ar    1  UNL1       -0.0218
     17 C          68.0344   92.4695   13.9701 C.ar    1  UNL1       -0.0029
     18 C          66.7856   91.9123   13.3537 C.ar    1  UNL1        0.0199
     19 C          65.5282   91.8132   14.1655 C.ar    1  UNL1        0.1251
     20 C          65.5196   92.2713   15.5938 C.ar    1  UNL1        0.0199
     21 C          66.7684   92.8285   16.2103 C.ar    1  UNL1       -0.0029
     22 O          62.8257   84.9431   11.2503 O.3     1  UNL1       -0.4535
     23 C          62.6452   83.8669   12.2794 C.ar    1  UNL1        0.1453
     24 C          62.6693   82.4244   11.8684 C.ar    1  UNL1        0.0375
     25 C          62.4888   81.3482   12.8976 C.ar    1  UNL1        0.0031
     26 C          62.2842   81.7144   14.3378 C.ar    1  UNL1        0.0002
     27 C          62.2601   83.1568   14.7487 C.ar    1  UNL1        0.0031
     28 C          62.4406   84.2330   13.7196 C.ar    1  UNL1        0.0375
@<TRIPOS>UNITY_ATOM_ATTR
8 1
charge -1
@<TRIPOS>BOND
     1    15    16    1
     2    16    17   ar
     3    17    18   ar
     4    18    19   ar
     5    19    12    1
     6    12    13    2
     7    12    14    2
     8    12    10    1
     9    10     1    1
    10     1     2   ar
    11     2     3   ar
    12     3     4   ar
    13     4    22    1
    14    22    23    1
    15    23    24   ar
    16    24    25   ar
    17    25    26   ar
    18    26    27   ar
    19    27    28   ar
    20     4     5   ar
    21     5     6   ar
    22     6     7    1
    23     7     8   ar
    24     7     9   ar
    25    19    20   ar
    26    20    21   ar
    27    21    16   ar
    28     6     1   ar
    29    28    23   ar
    30    10    11    1
@<TRIPOS>MOLECULE
*****
 28 30 0 0 0
SMALL
GASTEIGER

@<TRIPOS>ATOM
      1 C          62.3773   89.0251   12.1779 C.ar    1  UNL1        0.0660
      2 C          63.5134   88.9218   13.1519 C.ar    1  UNL1        0.0190
      3 C          64.4241   90.0938   13.3691 C.ar    1  UNL1        0.0388
      4 C          64.1985   91.3691   12.6124 C.ar    1  UNL1        0.1454
      5 C          63.0624   91.4724   11.6384 C.ar    1  UNL1        0.0399
      6 C          62.1518   90.3005   11.4212 C.ar    1  UNL1        0.0316
      7 C          61.0157   90.4038   10.4472 C.2     1  UNL1        0.0742
      8 O          59.6584   90.8320   10.9209 O.co2   1  UNL1       -0.5445
      9 O          61.2369   90.0788    8.9997 O.co2   1  UNL1       -0.5445
     10 N          61.4668   87.8531   11.9607 N.pl3   1  UNL1       -0.2150
     11 H          60.8395   87.5792   12.6684 H       1  UNL1        0.1737
     12 S          61.5119   87.0983   10.6653 S.O2    1  UNL1        0.0736
     13 O          62.9479   86.7475   10.9197 O.2     1  UNL1       -0.1499
     14 O          60.0759   87.4490   10.4109 O.2     1  UNL1       -0.1499
     15 C          61.6928   84.0789    5.4835 C.3     1  UNL1        0.0310
     16 C          61.6476   84.8337    6.7789 C.ar    1  UNL1       -0.0218
     17 C          62.8572   84.8761    7.6649 C.ar    1  UNL1       -0.0029
     18 C          62.8120   85.6309    8.9603 C.ar    1  UNL1        0.0199
     19 C          61.5571   86.3434    9.3698 C.ar    1  UNL1        0.1251
     20 C          60.3475   86.3010    8.4839 C.ar    1  UNL1        0.0199
     21 C          60.3927   85.5462    7.1884 C.ar    1  UNL1       -0.0029
     22 O          65.1091   92.5412   12.8296 O.3     1  UNL1       -0.4535
     23 C          66.2107   92.4572   13.8442 C.ar    1  UNL1        0.1453
     24 C          67.6010   92.0944   13.4135 C.ar    1  UNL1        0.0375
     25 C          68.7026   92.0104   14.4282 C.ar    1  UNL1        0.0031
     26 C          68.4138   92.2892   15.8735 C.ar    1  UNL1        0.0002
     27 C          67.0235   92.6520   16.3041 C.ar    1  UNL1        0.0031
     28 C          65.9220   92.7360   15.2895 C.ar    1  UNL1        0.0375
@<TRIPOS>UNITY_ATOM_ATTR
8 1
charge -1
@<TRIPOS>BOND
     1    15    16    1
     2    16    17   ar
     3    17    18   ar
     4    18    19   ar
     5    19    12    1
     6    12    13    2
     7    12    14    2
     8    12    10    1
     9    10     1    1
    10     1     2   ar
    11     2     3   ar
    12     3     4   ar
    13     4    22    1
    14    22    23    1
    15    23    24   ar
    16    24    25   ar
    17    25    26   ar
    18    26    27   ar
    19    27    28   ar
    20     4     5   ar
    21     5     6   ar
    22     6     7    1
    23     7     8   ar
    24     7     9   ar
    25    19    20   ar
    26    20    21   ar
    27    21    16   ar
    28     6     1   ar
    29    28    23   ar
    30    10    11    1
@<TRIPOS>MOLECULE
*****
 28 30 0 0 0
SMALL
GASTEIGER

@<TRIPOS>ATOM
      1 C          62.6872   88.0395   11.7830 C.ar    1  UNL1        0.0660
      2 C          63.6590   87.8617   12.9117 C.ar    1  UNL1        0.0190
      3 C          64.0663   89.0417   13.7435 C.ar    1  UNL1        0.0388
      4 C          63.5019   90.3993   13.4466 C.ar    1  UNL1        0.1454
      5 C          62.5301   90.5771   12.3179 C.ar    1  UNL1        0.0399
      6 C          62.1227   89.3972   11.4861 C.ar    1  UNL1        0.0316
      7 C          61.1509   89.5750   10.3574 C.2     1  UNL1        0.0742
      8 O          60.0656   90.6056   10.4574 O.co2   1  UNL1       -0.5445
      9 O          61.2644   88.7222    9.1286 O.co2   1  UNL1       -0.5445
     10 N          62.2798   86.8597   10.9512 N.pl3   1  UNL1       -0.2150
     11 H          61.9204   86.9968   10.0450 H       1  UNL1        0.1737
     12 S          62.4201   85.4708   11.5001 S.O2    1  UNL1        0.0736
     13 O          61.6700   85.8820   12.7322 O.2     1  UNL1       -0.1499
     14 O          63.1703   85.0596   10.2680 O.2     1  UNL1       -0.1499
     15 C          62.9813   79.9153   13.6960 C.3     1  UNL1        0.0310
     16 C          62.8410   81.3041   13.1470 C.ar    1  UNL1       -0.0218
     17 C          62.5779   82.4540   14.0738 C.ar    1  UNL1       -0.0029
     18 C          62.4376   83.8428   13.5248 C.ar    1  UNL1        0.0199
     19 C          62.5604   84.0819   12.0490 C.ar    1  UNL1        0.1251
     20 C          62.8236   82.9322   11.1223 C.ar    1  UNL1        0.0199
     21 C          62.9639   81.5433   11.6713 C.ar    1  UNL1       -0.0029
     22 O          63.9092   91.5793   14.2784 O.3     1  UNL1       -0.4535
     23 C          65.3625   91.8573   14.5249 C.ar    1  UNL1        0.1453
     24 C          66.3611   91.6603   13.4231 C.ar    1  UNL1        0.0375
     25 C          67.8144   91.9383   13.6695 C.ar    1  UNL1        0.0031
     26 C          68.2690   92.4132   15.0178 C.ar    1  UNL1        0.0002
     27 C          67.2704   92.6101   16.1196 C.ar    1  UNL1        0.0031
     28 C          65.8171   92.3322   15.8731 C.ar    1  UNL1        0.0375
@<TRIPOS>UNITY_ATOM_ATTR
8 1
charge -1
@<TRIPOS>BOND
     1    15    16    1
     2    16    17   ar
     3    17    18   ar
     4    18    19   ar
     5    19    12    1
     6    12    13    2
     7    12    14    2
     8    12    10    1
     9    10     1    1
    10     1     2   ar
    11     2     3   ar
    12     3     4   ar
    13     4    22    1
    14    22    23    1
    15    23    24   ar
    16    24    25   ar
    17    25    26   ar
    18    26    27   ar
    19    27    28   ar
    20     4     5   ar
    21     5     6   ar
    22     6     7    1
    23     7     8   ar
    24     7     9   ar
    25    19    20   ar
    26    20    21   ar
    27    21    16   ar
    28     6     1   ar
    29    28    23   ar
    30    10    11    1
@<TRIPOS>MOLECULE
*****
 28 30 0 0 0
SMALL
GASTEIGER

@<TRIPOS>ATOM
      1 C          62.4471   89.1316   12.1932 C.ar    1  UNL1        0.0660
      2 C          63.5564   89.0538   13.1998 C.ar    1  UNL1        0.0190
      3 C          64.4771   90.2222   13.3932 C.ar    1  UNL1        0.0388
      4 C          64.2883   91.4683   12.5799 C.ar    1  UNL1        0.1454
      5 C          63.1790   91.5461   11.5732 C.ar    1  UNL1        0.0399
      6 C          62.2584   90.3778   11.3799 C.ar    1  UNL1        0.0316
      7 C          61.1491   90.4556   10.3732 C.2     1  UNL1        0.0742
      8 O          59.7805   90.8992   10.7981 O.co2   1  UNL1       -0.5445
      9 O          61.4082   90.0898    8.9418 O.co2   1  UNL1       -0.5445
     10 N          61.5265   87.9632   11.9998 N.pl3   1  UNL1       -0.2150
     11 H          60.9052   87.7020   12.7174 H       1  UNL1        0.1737
     12 S          61.5526   87.1928   10.7131 S.O2    1  UNL1        0.0736
     13 O          63.0055   86.8867   10.9258 O.2     1  UNL1       -0.1499
     14 O          60.0997   87.4989   10.5003 O.2     1  UNL1       -0.1499
     15 C          61.6571   84.1111    5.5659 C.3     1  UNL1        0.0310
     16 C          61.6310   84.8815    6.8527 C.ar    1  UNL1       -0.0218
     17 C          60.3808   85.5953    7.2743 C.ar    1  UNL1       -0.0029
     18 C          60.3547   86.3657    8.5611 C.ar    1  UNL1        0.0199
     19 C          61.5787   86.4224    9.4262 C.ar    1  UNL1        0.1251
     20 C          62.8289   85.7087    9.0047 C.ar    1  UNL1        0.0199
     21 C          62.8550   84.9382    7.7179 C.ar    1  UNL1       -0.0029
     22 O          65.2089   92.6368   12.7733 O.3     1  UNL1       -0.4535
     23 C          66.0370   93.1369   11.6268 C.ar    1  UNL1        0.1453
     24 C          67.0095   92.2189   10.9474 C.ar    1  UNL1        0.0375
     25 C          67.8375   92.7190    9.8010 C.ar    1  UNL1        0.0031
     26 C          67.6930   94.1372    9.3340 C.ar    1  UNL1        0.0002
     27 C          66.7205   95.0551   10.0134 C.ar    1  UNL1        0.0031
     28 C          65.8925   94.5550   11.1598 C.ar    1  UNL1        0.0375
@<TRIPOS>UNITY_ATOM_ATTR
8 1
charge -1
@<TRIPOS>BOND
     1    15    16    1
     2    16    17   ar
     3    17    18   ar
     4    18    19   ar
     5    19    12    1
     6    12    13    2
     7    12    14    2
     8    12    10    1
     9    10     1    1
    10     1     2   ar
    11     2     3   ar
    12     3     4   ar
    13     4    22    1
    14    22    23    1
    15    23    24   ar
    16    24    25   ar
    17    25    26   ar
    18    26    27   ar
    19    27    28   ar
    20     4     5   ar
    21     5     6   ar
    22     6     7    1
    23     7     8   ar
    24     7     9   ar
    25    19    20   ar
    26    20    21   ar
    27    21    16   ar
    28     6     1   ar
    29    28    23   ar
    30    10    11    1
