@<TRIPOS>MOLECULE
*****
 32 35 0 0 0
SMALL
GASTEIGER

@<TRIPOS>ATOM
      1 C          63.8613   90.5748   12.5049 C.3     1  UNL1        0.2669
      2 N          63.6751   91.4229   11.2817 N.2     1  UNL1       -0.0890
      3 C          64.7752   92.4421   11.2524 C.2     1  UNL1        0.3741
      4 N          64.9742   93.4947   10.2025 N.pl3   1  UNL1       -0.2512
      5 N          65.6414   92.2241   12.4575 N.am    1  UNL1       -0.1416
      6 C          66.8586   93.0202   12.8242 C.3     1  UNL1        0.2160
      7 C          65.0766   91.0699   13.2316 C.2     1  UNL1        0.3314
      8 O          65.6298   90.5094   14.5082 O.2     1  UNL1       -0.2520
      9 H          64.3488   93.5587    9.4448 H       1  UNL1        0.2412
     10 H          65.7303   94.1215   10.2710 H       1  UNL1        0.2412
     11 C          64.4404   85.7150   14.2503 C.3     1  UNL1        0.0342
     12 C          64.0800   87.1499   14.4978 C.ar    1  UNL1        0.0121
     13 C          64.1508   88.1449   13.3777 C.ar    1  UNL1       -0.0015
     14 C          63.7905   89.5798   13.6251 C.ar    1  UNL1        0.0272
     15 C          63.3592   90.0196   14.9928 C.ar    1  UNL1        0.0029
     16 C          63.2883   89.0246   16.1130 C.ar    1  UNL1        0.0366
     17 C          63.6487   87.5897   15.8655 C.ar    1  UNL1        0.1402
     18 O          63.5778   86.5946   16.9857 O.3     1  UNL1       -0.4240
     19 C          62.3859   86.5738   17.8961 C.3     1  UNL1        0.5086
     20 F          61.0182   86.3182   17.3353 F       1  UNL1       -0.1550
     21 F          62.5615   86.8084   19.3671 F       1  UNL1       -0.1550
     22 C          62.6313   89.8717   12.0124 C.ar    1  UNL1        0.0279
     23 C          61.2978   90.1718   12.6302 C.ar    1  UNL1       -0.0002
     24 C          60.0677   89.4687   12.1377 C.ar    1  UNL1        0.0004
     25 C          60.1712   88.4654   11.0274 C.ar    1  UNL1        0.0082
     26 C          61.5047   88.1652   10.4096 C.ar    1  UNL1        0.0415
     27 C          62.7348   88.8684   10.9021 C.ar    1  UNL1        0.0080
     28 C          61.6082   87.1620    9.2993 C.1     1  UNL1       -0.0644
     29 C          61.7117   86.1587    8.1891 C.1     1  UNL1       -0.0874
     30 C          61.8152   85.1554    7.0788 C.3     1  UNL1        0.0645
     31 C          61.1648   84.1702    6.1535 C.3     1  UNL1        0.0140
     32 C          62.6449   84.4030    6.0811 C.3     1  UNL1        0.0140
@<TRIPOS>BOND
     1    11    12    1
     2    12    13   ar
     3    13    14   ar
     4     1    14    1
     5     1    22    1
     6    22    23   ar
     7    23    24   ar
     8    24    25   ar
     9    25    26   ar
    10    26    28    1
    11    28    29    3
    12    29    30    1
    13    30    31    1
    14    31    32    1
    15    26    27   ar
    16     1     2    1
    17     2     3    2
    18     3     4    1
    19     3     5    1
    20     5     6    1
    21     5     7   am
    22     7     8    2
    23    14    15   ar
    24    15    16   ar
    25    16    17   ar
    26    17    18    1
    27    18    19    1
    28    19    20    1
    29    19    21    1
    30    17    12   ar
    31     7     1    1
    32    27    22   ar
    33    32    30    1
    34     4     9    1
    35     4    10    1
@<TRIPOS>MOLECULE
*****
 32 35 0 0 0
SMALL
GASTEIGER

@<TRIPOS>ATOM
      1 C          64.1626   90.8738   12.5499 C.3     1  UNL1        0.2669
      2 N          65.2591   91.3774   13.4410 N.2     1  UNL1       -0.0890
      3 C          65.8990   92.5553   12.7680 C.2     1  UNL1        0.3741
      4 N          67.0397   93.3665   13.3073 N.pl3   1  UNL1       -0.2512
      5 N          65.1981   92.7797   11.4609 N.am    1  UNL1       -0.1416
      6 C          65.5147   93.8545   10.4638 C.3     1  UNL1        0.2160
      7 C          64.1249   91.7404   11.3262 C.2     1  UNL1        0.3314
      8 O          63.1799   91.5935   10.1705 O.2     1  UNL1       -0.2520
      9 H          67.4355   93.1401   14.1798 H       1  UNL1        0.2412
     10 H          67.3926   94.1253   12.7887 H       1  UNL1        0.2412
     11 C          59.0591   90.0537   12.0184 C.3     1  UNL1        0.0342
     12 C          60.4725   89.7476   11.6199 C.ar    1  UNL1        0.0121
     13 C          61.6108   90.4637   12.2841 C.ar    1  UNL1       -0.0015
     14 C          63.0242   90.1576   11.8856 C.ar    1  UNL1        0.0272
     15 C          63.2991   89.1355   10.8228 C.ar    1  UNL1        0.0029
     16 C          62.1607   88.4194   10.1585 C.ar    1  UNL1        0.0366
     17 C          60.7474   88.7255   10.5571 C.ar    1  UNL1        0.1402
     18 O          59.6090   88.0093    9.8927 O.3     1  UNL1       -0.4240
     19 C          59.7294   87.5739    8.4624 C.3     1  UNL1        0.5086
     20 F          59.7927   88.5989    7.3691 F       1  UNL1       -0.1550
     21 F          59.7864   86.1133    8.1254 F       1  UNL1       -0.1550
     22 C          63.9623   89.8575   13.6348 C.ar    1  UNL1        0.0279
     23 C          63.7048   90.3047   15.0432 C.ar    1  UNL1       -0.0002
     24 C          63.5045   89.2884   16.1281 C.ar    1  UNL1        0.0004
     25 C          63.5617   87.8247   15.8045 C.ar    1  UNL1        0.0082
     26 C          63.8191   87.3775   14.3961 C.ar    1  UNL1        0.0415
     27 C          64.0194   88.3939   13.3112 C.ar    1  UNL1        0.0080
     28 C          63.8762   85.9139   14.0725 C.1     1  UNL1       -0.0644
     29 C          63.9333   84.4505   13.7488 C.1     1  UNL1       -0.0874
     30 C          63.9904   82.9869   13.4252 C.3     1  UNL1        0.0645
     31 C          63.6877   81.5634   13.7885 C.3     1  UNL1        0.0140
     32 C          64.3920   81.8755   12.5014 C.3     1  UNL1        0.0140
@<TRIPOS>BOND
     1    11    12    1
     2    12    13   ar
     3    13    14   ar
     4     1    14    1
     5     1    22    1
     6    22    23   ar
     7    23    24   ar
     8    24    25   ar
     9    25    26   ar
    10    26    28    1
    11    28    29    3
    12    29    30    1
    13    30    31    1
    14    31    32    1
    15    26    27   ar
    16     1     2    1
    17     2     3    2
    18     3     4    1
    19     3     5    1
    20     5     6    1
    21     5     7   am
    22     7     8    2
    23    14    15   ar
    24    15    16   ar
    25    16    17   ar
    26    17    18    1
    27    18    19    1
    28    19    20    1
    29    19    21    1
    30    17    12   ar
    31     7     1    1
    32    27    22   ar
    33    32    30    1
    34     4     9    1
    35     4    10    1
@<TRIPOS>MOLECULE
*****
 32 35 0 0 0
SMALL
GASTEIGER

@<TRIPOS>ATOM
      1 C          64.0413   90.8521   12.5433 C.3     1  UNL1        0.2669
      2 N          64.0354   91.5261   11.2033 N.2     1  UNL1       -0.0890
      3 C          65.0053   92.6691   11.2550 C.2     1  UNL1        0.3741
      4 N          65.3155   93.6138   10.1320 N.pl3   1  UNL1       -0.2512
      5 N          65.6108   92.7016   12.6271 N.am    1  UNL1       -0.1416
      6 C          66.6325   93.6844   13.1169 C.3     1  UNL1        0.2160
      7 C          65.0149   91.5785   13.4233 C.2     1  UNL1        0.3314
      8 O          65.3363   91.2412   14.8491 O.2     1  UNL1       -0.2520
      9 H          64.8639   93.5110    9.2632 H       1  UNL1        0.2412
     10 H          65.9707   94.3368   10.2636 H       1  UNL1        0.2412
     11 C          64.8675   86.3956   15.0845 C.3     1  UNL1        0.0342
     12 C          64.2478   87.7602   15.0228 C.ar    1  UNL1        0.0121
     13 C          64.4544   88.6239   13.8139 C.ar    1  UNL1       -0.0015
     14 C          63.8347   89.9885   13.7523 C.ar    1  UNL1        0.0272
     15 C          63.0083   90.4894   14.8995 C.ar    1  UNL1        0.0029
     16 C          62.8017   89.6258   16.1083 C.ar    1  UNL1        0.0366
     17 C          63.4214   88.2612   16.1700 C.ar    1  UNL1        0.1402
     18 O          63.2148   87.3976   17.3790 O.3     1  UNL1       -0.4240
     19 C          62.3259   86.1922   17.2965 C.3     1  UNL1        0.5086
     20 F          62.9248   84.8168   17.3027 F       1  UNL1       -0.1550
     21 F          60.8382   86.3619   17.2078 F       1  UNL1       -0.1550
     22 C          63.0245   89.9451   11.9161 C.ar    1  UNL1        0.0279
     23 C          61.8223   90.5255   11.2320 C.ar    1  UNL1       -0.0002
     24 C          60.8055   89.6185   10.6048 C.ar    1  UNL1        0.0004
     25 C          60.9909   88.1310   10.6616 C.ar    1  UNL1        0.0082
     26 C          62.1930   87.5506   11.3457 C.ar    1  UNL1        0.0415
     27 C          63.2099   88.4577   11.9729 C.ar    1  UNL1        0.0080
     28 C          62.3784   86.0632   11.4025 C.1     1  UNL1       -0.0644
     29 C          62.5638   84.5759   11.4594 C.1     1  UNL1       -0.0874
     30 C          62.7491   83.0884   11.5163 C.3     1  UNL1        0.0645
     31 C          62.5492   81.7805   12.2229 C.3     1  UNL1        0.0140
     32 C          63.2702   81.8201   10.9081 C.3     1  UNL1        0.0140
@<TRIPOS>BOND
     1    11    12    1
     2    12    13   ar
     3    13    14   ar
     4     1    14    1
     5     1    22    1
     6    22    23   ar
     7    23    24   ar
     8    24    25   ar
     9    25    26   ar
    10    26    28    1
    11    28    29    3
    12    29    30    1
    13    30    31    1
    14    31    32    1
    15    26    27   ar
    16     1     2    1
    17     2     3    2
    18     3     4    1
    19     3     5    1
    20     5     6    1
    21     5     7   am
    22     7     8    2
    23    14    15   ar
    24    15    16   ar
    25    16    17   ar
    26    17    18    1
    27    18    19    1
    28    19    20    1
    29    19    21    1
    30    17    12   ar
    31     7     1    1
    32    27    22   ar
    33    32    30    1
    34     4     9    1
    35     4    10    1
@<TRIPOS>MOLECULE
*****
 32 35 0 0 0
SMALL
GASTEIGER

@<TRIPOS>ATOM
      1 C          62.9190   85.9451   12.4993 C.3     1  UNL1        0.2669
      2 N          63.3696   86.3452   13.8730 N.2     1  UNL1       -0.0890
      3 C          63.5020   85.0997   14.6984 C.2     1  UNL1        0.3741
      4 N          63.9284   85.0353   16.1351 N.pl3   1  UNL1       -0.2512
      5 N          63.1333   83.9299   13.8349 N.am    1  UNL1       -0.1416
      6 C          63.1261   82.4904   14.2564 C.3     1  UNL1        0.2160
      7 C          62.7730   84.4524   12.4757 C.2     1  UNL1        0.3314
      8 O          62.3422   83.6272   11.2995 O.2     1  UNL1       -0.2520
      9 H          64.1513   85.8626   16.6200 H       1  UNL1        0.2412
     10 H          63.9852   84.1657   16.5931 H       1  UNL1        0.2412
     11 C          59.3129   86.7232    8.8400 C.3     1  UNL1        0.0342
     12 C          60.6767   86.2422    9.2384 C.ar    1  UNL1        0.0121
     13 C          61.1160   86.3341   10.6696 C.ar    1  UNL1       -0.0015
     14 C          62.4798   85.8531   11.0680 C.ar    1  UNL1        0.0272
     15 C          63.4043   85.2801   10.0351 C.ar    1  UNL1        0.0029
     16 C          62.9650   85.1881    8.6038 C.ar    1  UNL1        0.0366
     17 C          61.6012   85.6691    8.2055 C.ar    1  UNL1        0.1402
     18 O          61.1619   85.5771    6.7741 O.3     1  UNL1       -0.4240
     19 C          61.6464   84.4494    5.9120 C.3     1  UNL1        0.5086
     20 F          63.0246   84.4952    5.3215 F       1  UNL1       -0.1550
     21 F          60.7527   83.2757    5.6402 F       1  UNL1       -0.1550
     22 C          62.9732   87.4186   12.2237 C.ar    1  UNL1        0.0279
     23 C          62.1168   88.0117   11.1444 C.ar    1  UNL1       -0.0002
     24 C          62.1710   89.4851   10.8688 C.ar    1  UNL1        0.0004
     25 C          63.0817   90.3655   11.6724 C.ar    1  UNL1        0.0082
     26 C          63.9381   89.7724   12.7516 C.ar    1  UNL1        0.0415
     27 C          63.8839   88.2989   13.0273 C.ar    1  UNL1        0.0080
     28 C          64.8488   90.6527   13.5552 C.1     1  UNL1       -0.0644
     29 C          65.7594   91.5329   14.3588 C.1     1  UNL1       -0.0874
     30 C          66.6701   92.4132   15.1624 C.3     1  UNL1        0.0645
     31 C          67.6002   93.5869   15.2475 C.3     1  UNL1        0.0140
     32 C          67.3173   92.7641   16.4693 C.3     1  UNL1        0.0140
@<TRIPOS>BOND
     1    11    12    1
     2    12    13   ar
     3    13    14   ar
     4     1    14    1
     5     1    22    1
     6    22    23   ar
     7    23    24   ar
     8    24    25   ar
     9    25    26   ar
    10    26    28    1
    11    28    29    3
    12    29    30    1
    13    30    31    1
    14    31    32    1
    15    26    27   ar
    16     1     2    1
    17     2     3    2
    18     3     4    1
    19     3     5    1
    20     5     6    1
    21     5     7   am
    22     7     8    2
    23    14    15   ar
    24    15    16   ar
    25    16    17   ar
    26    17    18    1
    27    18    19    1
    28    19    20    1
    29    19    21    1
    30    17    12   ar
    31     7     1    1
    32    27    22   ar
    33    32    30    1
    34     4     9    1
    35     4    10    1
@<TRIPOS>MOLECULE
*****
 32 35 0 0 0
SMALL
GASTEIGER

@<TRIPOS>ATOM
      1 C          62.9839   81.9769   12.0554 C.3     1  UNL1        0.2669
      2 N          62.8062   81.2019   10.7835 N.2     1  UNL1       -0.0890
      3 C          62.6838   79.7497   11.1388 C.2     1  UNL1        0.3741
      4 N          62.4928   78.6186   10.1724 N.pl3   1  UNL1       -0.2512
      5 N          62.7859   79.6272   12.6304 N.am    1  UNL1       -0.1416
      6 C          62.7149   78.3523   13.4172 C.3     1  UNL1        0.2160
      7 C          62.9714   81.0038   13.1968 C.2     1  UNL1        0.3314
      8 O          63.1185   81.3469   14.6496 O.2     1  UNL1       -0.2520
      9 H          62.4373   78.8005    9.2064 H       1  UNL1        0.2412
     10 H          62.4230   77.6943   10.5040 H       1  UNL1        0.2412
     11 C          66.0626   85.2475   14.6680 C.3     1  UNL1        0.0342
     12 C          64.7119   84.6354   14.4422 C.ar    1  UNL1        0.0121
     13 C          64.5232   83.6122   13.3617 C.ar    1  UNL1       -0.0015
     14 C          63.1725   83.0002   13.1360 C.ar    1  UNL1        0.0272
     15 C          62.0105   83.4112   13.9907 C.ar    1  UNL1        0.0029
     16 C          62.1991   84.4344   15.0712 C.ar    1  UNL1        0.0366
     17 C          63.5498   85.0465   15.2969 C.ar    1  UNL1        0.1402
     18 O          63.7384   86.0697   16.3775 O.3     1  UNL1       -0.4240
     19 C          63.6384   87.5307   16.0526 C.3     1  UNL1        0.5086
     20 F          64.1471   88.0432   14.7379 F       1  UNL1       -0.1550
     21 F          63.0297   88.4791   17.0425 F       1  UNL1       -0.1550
     22 C          63.0359   83.1640   11.1399 C.ar    1  UNL1        0.0279
     23 C          63.8879   83.1228    9.9060 C.ar    1  UNL1       -0.0002
     24 C          63.9399   84.3098    8.9905 C.ar    1  UNL1        0.0004
     25 C          63.1398   85.5381    9.3088 C.ar    1  UNL1        0.0082
     26 C          62.2878   85.5793   10.5427 C.ar    1  UNL1        0.0415
     27 C          62.2358   84.3922   11.4582 C.ar    1  UNL1        0.0080
     28 C          61.4877   86.8075   10.8610 C.1     1  UNL1       -0.0644
     29 C          60.6876   88.0357   11.1793 C.1     1  UNL1       -0.0874
     30 C          59.8875   89.2639   11.4977 C.3     1  UNL1        0.0645
     31 C          59.5738   90.7099   11.2512 C.3     1  UNL1        0.0140
     32 C          58.8155   89.9453   12.2955 C.3     1  UNL1        0.0140
@<TRIPOS>BOND
     1    11    12    1
     2    12    13   ar
     3    13    14   ar
     4     1    14    1
     5     1    22    1
     6    22    23   ar
     7    23    24   ar
     8    24    25   ar
     9    25    26   ar
    10    26    28    1
    11    28    29    3
    12    29    30    1
    13    30    31    1
    14    31    32    1
    15    26    27   ar
    16     1     2    1
    17     2     3    2
    18     3     4    1
    19     3     5    1
    20     5     6    1
    21     5     7   am
    22     7     8    2
    23    14    15   ar
    24    15    16   ar
    25    16    17   ar
    26    17    18    1
    27    18    19    1
    28    19    20    1
    29    19    21    1
    30    17    12   ar
    31     7     1    1
    32    27    22   ar
    33    32    30    1
    34     4     9    1
    35     4    10    1
@<TRIPOS>MOLECULE
*****
 32 35 0 0 0
SMALL
GASTEIGER

@<TRIPOS>ATOM
      1 C          63.0317   86.3131   12.8451 C.3     1  UNL1        0.2669
      2 N          63.7317   86.6124   14.1376 N.2     1  UNL1       -0.0890
      3 C          63.8631   85.3284   14.9018 C.2     1  UNL1        0.3741
      4 N          64.5012   85.1657   16.2495 N.pl3   1  UNL1       -0.2512
      5 N          63.2442   84.2354   14.0816 N.am    1  UNL1       -0.1416
      6 C          63.1548   82.7881   14.4651 C.3     1  UNL1        0.2160
      7 C          62.7304   84.8441   12.8105 C.2     1  UNL1        0.3314
      8 O          62.0370   84.1122   11.6998 O.2     1  UNL1       -0.2520
      9 H          64.8819   85.9473   16.7114 H       1  UNL1        0.2412
     10 H          64.5393   84.2773   16.6720 H       1  UNL1        0.2412
     11 C          63.1436   85.2471    7.7607 C.3     1  UNL1        0.0342
     12 C          62.4215   85.7883    8.9590 C.ar    1  UNL1        0.0121
     13 C          63.0876   85.7801   10.3029 C.ar    1  UNL1       -0.0015
     14 C          62.3655   86.3213   11.5012 C.ar    1  UNL1        0.0272
     15 C          60.9774   86.8706   11.3555 C.ar    1  UNL1        0.0029
     16 C          60.3113   86.8788   10.0115 C.ar    1  UNL1        0.0366
     17 C          61.0334   86.3376    8.8133 C.ar    1  UNL1        0.1402
     18 O          60.3672   86.3458    7.4693 O.3     1  UNL1       -0.4240
     19 C          59.0953   87.1148    7.2673 C.3     1  UNL1        0.5086
     20 F          59.1296   88.4607    6.6057 F       1  UNL1       -0.1550
     21 F          57.7891   86.5381    7.7269 F       1  UNL1       -0.1550
     22 C          63.1937   87.7839   12.5988 C.ar    1  UNL1        0.0279
     23 C          62.3426   88.4706   11.5722 C.ar    1  UNL1       -0.0002
     24 C          62.5046   89.9413   11.3258 C.ar    1  UNL1        0.0004
     25 C          63.5179   90.7254   12.1061 C.ar    1  UNL1        0.0082
     26 C          64.3690   90.0386   13.1328 C.ar    1  UNL1        0.0415
     27 C          64.2069   88.5678   13.3791 C.ar    1  UNL1        0.0080
     28 C          65.3822   90.8226   13.9131 C.1     1  UNL1       -0.0644
     29 C          66.3953   91.6065   14.6934 C.1     1  UNL1       -0.0874
     30 C          67.4085   92.3904   15.4737 C.3     1  UNL1        0.0645
     31 C          68.5283   92.4365   16.4706 C.3     1  UNL1        0.0140
     32 C          68.0436   93.7023   15.8282 C.3     1  UNL1        0.0140
@<TRIPOS>BOND
     1    11    12    1
     2    12    13   ar
     3    13    14   ar
     4     1    14    1
     5     1    22    1
     6    22    23   ar
     7    23    24   ar
     8    24    25   ar
     9    25    26   ar
    10    26    28    1
    11    28    29    3
    12    29    30    1
    13    30    31    1
    14    31    32    1
    15    26    27   ar
    16     1     2    1
    17     2     3    2
    18     3     4    1
    19     3     5    1
    20     5     6    1
    21     5     7   am
    22     7     8    2
    23    14    15   ar
    24    15    16   ar
    25    16    17   ar
    26    17    18    1
    27    18    19    1
    28    19    20    1
    29    19    21    1
    30    17    12   ar
    31     7     1    1
    32    27    22   ar
    33    32    30    1
    34     4     9    1
    35     4    10    1
@<TRIPOS>MOLECULE
*****
 32 35 0 0 0
SMALL
GASTEIGER

@<TRIPOS>ATOM
      1 C          62.5861   86.2876   11.6297 C.3     1  UNL1        0.2669
      2 N          62.9108   86.8494   12.9820 N.2     1  UNL1       -0.0890
      3 C          63.4581   85.7372   13.8267 C.2     1  UNL1        0.3741
      4 N          63.9122   85.8537   15.2516 N.pl3   1  UNL1       -0.2512
      5 N          63.4717   84.4880   12.9964 N.am    1  UNL1       -0.1416
      6 C          63.9417   83.1362   13.4452 C.3     1  UNL1        0.2160
      7 C          62.9327   84.8282   11.6385 C.2     1  UNL1        0.3314
      8 O          62.7692   83.8761   10.4910 O.2     1  UNL1       -0.2520
      9 H          63.8642   86.7215   15.7142 H       1  UNL1        0.2412
     10 H          64.2582   85.0625   15.7242 H       1  UNL1        0.2412
     11 C          58.9668   86.4018    7.9030 C.3     1  UNL1        0.0342
     12 C          60.3611   86.0762    8.3502 C.ar    1  UNL1        0.0121
     13 C          60.7765   86.3447    9.7663 C.ar    1  UNL1       -0.0015
     14 C          62.1707   86.0191   10.2135 C.ar    1  UNL1        0.0272
     15 C          63.1497   85.4251    9.2446 C.ar    1  UNL1        0.0029
     16 C          62.7343   85.1566    7.8285 C.ar    1  UNL1        0.0366
     17 C          61.3400   85.4822    7.3813 C.ar    1  UNL1        0.1402
     18 O          60.9247   85.2137    5.9651 O.3     1  UNL1       -0.4240
     19 C          61.8318   84.4456    5.0503 C.3     1  UNL1        0.5086
     20 F          61.3537   84.0389    3.6879 F       1  UNL1       -0.1550
     21 F          63.2171   84.0841    5.4978 F       1  UNL1       -0.1550
     22 C          62.1526   87.6908   11.3247 C.ar    1  UNL1        0.0279
     23 C          60.6971   88.0027   11.1398 C.ar    1  UNL1       -0.0002
     24 C          60.2636   89.4059   10.8348 C.ar    1  UNL1        0.0004
     25 C          61.2856   90.4974   10.7149 C.ar    1  UNL1        0.0082
     26 C          62.7412   90.1855   10.8998 C.ar    1  UNL1        0.0415
     27 C          63.1746   88.7821   11.2048 C.ar    1  UNL1        0.0080
     28 C          63.7632   91.2768   10.7799 C.1     1  UNL1       -0.0644
     29 C          64.7852   92.3681   10.6599 C.1     1  UNL1       -0.0874
     30 C          65.8073   93.4594   10.5399 C.3     1  UNL1        0.0645
     31 C          67.0339   94.0244    9.8872 C.3     1  UNL1        0.0140
     32 C          66.3509   94.7847   10.9850 C.3     1  UNL1        0.0140
@<TRIPOS>BOND
     1    11    12    1
     2    12    13   ar
     3    13    14   ar
     4     1    14    1
     5     1    22    1
     6    22    23   ar
     7    23    24   ar
     8    24    25   ar
     9    25    26   ar
    10    26    28    1
    11    28    29    3
    12    29    30    1
    13    30    31    1
    14    31    32    1
    15    26    27   ar
    16     1     2    1
    17     2     3    2
    18     3     4    1
    19     3     5    1
    20     5     6    1
    21     5     7   am
    22     7     8    2
    23    14    15   ar
    24    15    16   ar
    25    16    17   ar
    26    17    18    1
    27    18    19    1
    28    19    20    1
    29    19    21    1
    30    17    12   ar
    31     7     1    1
    32    27    22   ar
    33    32    30    1
    34     4     9    1
    35     4    10    1
@<TRIPOS>MOLECULE
*****
 32 35 0 0 0
SMALL
GASTEIGER

@<TRIPOS>ATOM
      1 C          63.2641   87.5105   13.0028 C.3     1  UNL1        0.2669
      2 N          64.1573   87.1593   14.1555 N.2     1  UNL1       -0.0890
      3 C          64.2074   85.6641   14.2642 C.2     1  UNL1        0.3741
      4 N          64.9834   84.8794   15.2801 N.pl3   1  UNL1       -0.2512
      5 N          63.3451   85.0912   13.1787 N.am    1  UNL1       -0.1416
      6 C          63.1075   83.6332   12.9185 C.3     1  UNL1        0.2160
      7 C          62.7621   86.2325   12.3990 C.2     1  UNL1        0.3314
      8 O          61.8393   86.1160   11.2223 O.2     1  UNL1       -0.2520
      9 H          65.5234   85.3484   15.9567 H       1  UNL1        0.2412
     10 H          64.9528   83.8954   15.2703 H       1  UNL1        0.2412
     11 C          59.2827   90.5388   11.5964 C.3     1  UNL1        0.0342
     12 C          60.4491   89.6714   11.2261 C.ar    1  UNL1        0.0121
     13 C          61.2734   89.0247   12.2995 C.ar    1  UNL1       -0.0015
     14 C          62.4398   88.1573   11.9293 C.ar    1  UNL1        0.0272
     15 C          62.7819   87.9366   10.4856 C.ar    1  UNL1        0.0029
     16 C          61.9577   88.5834    9.4122 C.ar    1  UNL1        0.0366
     17 C          60.7912   89.4507    9.7825 C.ar    1  UNL1        0.1402
     18 O          59.9669   90.0975    8.7090 O.3     1  UNL1       -0.4240
     19 C          59.5317   89.3006    7.5151 C.3     1  UNL1        0.5086
     20 F          58.8045   88.0023    7.7044 F       1  UNL1       -0.1550
     21 F          59.8236   89.8019    6.1318 F       1  UNL1       -0.1550
     22 C          63.5938   88.9238   13.3820 C.ar    1  UNL1        0.0279
     23 C          63.2653   89.4277   14.7562 C.ar    1  UNL1       -0.0002
     24 C          63.5949   90.8410   15.1355 C.ar    1  UNL1        0.0004
     25 C          64.2531   91.7505   14.1406 C.ar    1  UNL1        0.0082
     26 C          64.5816   91.2467   12.7665 C.ar    1  UNL1        0.0415
     27 C          64.2519   89.8333   12.3872 C.ar    1  UNL1        0.0080
     28 C          65.2397   92.1561   11.7716 C.1     1  UNL1       -0.0644
     29 C          65.8978   93.0655   10.7767 C.1     1  UNL1       -0.0874
     30 C          66.5559   93.9750    9.7819 C.3     1  UNL1        0.0645
     31 C          67.5771   94.2028    8.7071 C.3     1  UNL1        0.0140
     32 C          66.6746   95.3224    9.1335 C.3     1  UNL1        0.0140
@<TRIPOS>BOND
     1    11    12    1
     2    12    13   ar
     3    13    14   ar
     4     1    14    1
     5     1    22    1
     6    22    23   ar
     7    23    24   ar
     8    24    25   ar
     9    25    26   ar
    10    26    28    1
    11    28    29    3
    12    29    30    1
    13    30    31    1
    14    31    32    1
    15    26    27   ar
    16     1     2    1
    17     2     3    2
    18     3     4    1
    19     3     5    1
    20     5     6    1
    21     5     7   am
    22     7     8    2
    23    14    15   ar
    24    15    16   ar
    25    16    17   ar
    26    17    18    1
    27    18    19    1
    28    19    20    1
    29    19    21    1
    30    17    12   ar
    31     7     1    1
    32    27    22   ar
    33    32    30    1
    34     4     9    1
    35     4    10    1
@<TRIPOS>MOLECULE
*****
 32 35 0 0 0
SMALL
GASTEIGER

@<TRIPOS>ATOM
      1 C          62.5694   87.5115   11.5265 C.3     1  UNL1        0.2669
      2 N          62.2827   88.9041   11.0484 N.2     1  UNL1       -0.0890
      3 C          62.9334   89.8639   11.9999 C.2     1  UNL1        0.3741
      4 N          62.9010   91.3604   11.9024 N.pl3   1  UNL1       -0.2512
      5 N          63.6224   89.0646   13.0660 N.am    1  UNL1       -0.1416
      6 C          64.3997   89.6213   14.2216 C.3     1  UNL1        0.2160
      7 C          63.3974   87.6107   12.7733 C.2     1  UNL1        0.3314
      8 O          63.9103   86.4583   13.5851 O.2     1  UNL1       -0.2520
      9 H          62.4197   91.7951   11.1617 H       1  UNL1        0.2412
     10 H          63.3609   91.9079   12.5792 H       1  UNL1        0.2412
     11 C          64.4294   82.8743   10.0991 C.3     1  UNL1        0.0342
     12 C          63.6183   83.7150   11.0401 C.ar    1  UNL1        0.0121
     13 C          63.4994   85.1929   10.8128 C.ar    1  UNL1       -0.0015
     14 C          62.6883   86.0335   11.7538 C.ar    1  UNL1        0.0272
     15 C          61.9961   85.3963   12.9220 C.ar    1  UNL1        0.0029
     16 C          62.1150   83.9185   13.1492 C.ar    1  UNL1        0.0366
     17 C          62.9261   83.0778   12.2083 C.ar    1  UNL1        0.1402
     18 O          63.0450   81.5998   12.4356 O.3     1  UNL1       -0.4240
     19 C          62.1791   80.9263   13.4586 C.3     1  UNL1        0.5086
     20 F          61.5878   81.7239   14.5830 F       1  UNL1       -0.1550
     21 F          61.9044   79.4552   13.3572 F       1  UNL1       -0.1550
     22 C          61.7663   87.1034   10.3271 C.ar    1  UNL1        0.0279
     23 C          61.5522   85.6493   10.0273 C.ar    1  UNL1       -0.0002
     24 C          60.7491   85.2411    8.8280 C.ar    1  UNL1        0.0004
     25 C          60.1601   86.2871    7.9284 C.ar    1  UNL1        0.0082
     26 C          60.3742   87.7411    8.2282 C.ar    1  UNL1        0.0415
     27 C          61.1773   88.1493    9.4276 C.ar    1  UNL1        0.0080
     28 C          59.7852   88.7871    7.3287 C.1     1  UNL1       -0.0644
     29 C          59.1963   89.8330    6.4293 C.1     1  UNL1       -0.0874
     30 C          58.6073   90.8789    5.5298 C.3     1  UNL1        0.0645
     31 C          57.4081   91.5395    4.9169 C.3     1  UNL1        0.0140
     32 C          58.7862   92.0299    4.5847 C.3     1  UNL1        0.0140
@<TRIPOS>BOND
     1    11    12    1
     2    12    13   ar
     3    13    14   ar
     4     1    14    1
     5     1    22    1
     6    22    23   ar
     7    23    24   ar
     8    24    25   ar
     9    25    26   ar
    10    26    28    1
    11    28    29    3
    12    29    30    1
    13    30    31    1
    14    31    32    1
    15    26    27   ar
    16     1     2    1
    17     2     3    2
    18     3     4    1
    19     3     5    1
    20     5     6    1
    21     5     7   am
    22     7     8    2
    23    14    15   ar
    24    15    16   ar
    25    16    17   ar
    26    17    18    1
    27    18    19    1
    28    19    20    1
    29    19    21    1
    30    17    12   ar
    31     7     1    1
    32    27    22   ar
    33    32    30    1
    34     4     9    1
    35     4    10    1
