@<TRIPOS>MOLECULE
*****
 33 36 0 0 0
SMALL
GASTEIGER

@<TRIPOS>ATOM
      1 O          60.3219   86.0241    8.9263 O.3     1  UNL1       -0.3755
      2 C          61.1807   86.9244    9.7640 C.3     1  UNL1        0.1932
      3 H          60.8494   85.2721    8.6146 H       1  UNL1        0.2110
      4 C          62.0106   85.7460   10.1796 C.ar    1  UNL1        0.0368
      5 C          61.8890   85.1960   11.5698 C.ar    1  UNL1        0.0028
      6 C          62.7189   84.0177   11.9854 C.ar    1  UNL1        0.0295
      7 C          63.6703   83.3893   11.0108 C.ar    1  UNL1        0.1424
      8 F          64.5002   82.2109   11.4264 F       1  UNL1       -0.2041
      9 C          63.7918   83.9393    9.6206 C.ar    1  UNL1        0.0590
     10 C          62.9620   85.1176    9.2050 C.ar    1  UNL1        0.1408
     11 F          63.0835   85.6676    7.8147 F       1  UNL1       -0.2043
     12 C          62.0395   87.8248   10.6017 C.3     1  UNL1        0.3254
     13 F          61.7200   87.4227   12.0112 F       1  UNL1       -0.1949
     14 F          62.5828   88.4636    9.3581 F       1  UNL1       -0.1949
     15 C          62.8983   88.7251   11.4395 C.ar    1  UNL1        0.1218
     16 C          63.2413   90.1014   10.9517 C.ar    1  UNL1        0.0202
     17 C          64.1002   91.0018   11.7895 C.ar    1  UNL1        0.0029
     18 C          64.6159   90.5257   13.1151 C.ar    1  UNL1        0.0192
     19 C          64.2728   89.1493   13.6030 C.ar    1  UNL1        0.0986
     20 N          63.4141   88.2491   12.7652 N.ar    1  UNL1       -0.2427
     21 C          65.4747   91.4260   13.9529 C.ar    1  UNL1        0.0016
     22 C          66.6609   92.1119   13.3427 C.ar    1  UNL1        0.0024
     23 C          67.5198   93.0122   14.1805 C.ar    1  UNL1        0.0296
     24 C          67.1924   93.2266   15.6286 C.ar    1  UNL1        0.1401
     25 F          68.0511   94.1268   16.4664 F       1  UNL1       -0.2042
     26 C          66.0061   92.5406   16.2388 C.ar    1  UNL1        0.0296
     27 C          65.1473   91.6404   15.4010 C.ar    1  UNL1        0.0024
     28 C          60.3508   88.1028    9.3484 C.3     1  UNL1        0.1679
     29 N          59.8084   89.0412   10.3853 N.ar    1  UNL1       -0.2078
     30 C          59.1722   88.6466   11.6851 C.ar    1  UNL1        0.2216
     31 N          58.7775   89.9005   12.4076 N.ar    1  UNL1       -0.1048
     32 N          59.1698   91.0701   11.5542 N.ar    1  UNL1       -0.0226
     33 N          59.8069   90.5390   10.3044 N.ar    1  UNL1       -0.0428
@<TRIPOS>BOND
     1     1     2    1
     2     2    28    1
     3    28    29    1
     4    29    30   ar
     5    30    31   ar
     6    31    32   ar
     7    32    33   ar
     8     2     4    1
     9     4     5   ar
    10     5     6   ar
    11     6     7   ar
    12     7     8    1
    13     7     9   ar
    14     9    10   ar
    15    10    11    1
    16     2    12    1
    17    12    13    1
    18    12    14    1
    19    12    15    1
    20    15    16   ar
    21    16    17   ar
    22    17    18   ar
    23    18    21    1
    24    21    22   ar
    25    22    23   ar
    26    23    24   ar
    27    24    25    1
    28    24    26   ar
    29    26    27   ar
    30    18    19   ar
    31    19    20   ar
    32    33    29   ar
    33    10     4   ar
    34    20    15   ar
    35    27    21   ar
    36     1     3    1
@<TRIPOS>MOLECULE
*****
 33 36 0 0 0
SMALL
GASTEIGER

@<TRIPOS>ATOM
      1 O          59.9150   86.1555    9.2341 O.3     1  UNL1       -0.3755
      2 C          60.8316   87.0647    9.9977 C.3     1  UNL1        0.1932
      3 H          60.4374   85.4722    8.7856 H       1  UNL1        0.2110
      4 C          61.7984   85.9331   10.1845 C.ar    1  UNL1        0.0368
      5 C          62.0220   85.3556   11.5507 C.ar    1  UNL1        0.0028
      6 C          62.9888   84.2240   11.7376 C.ar    1  UNL1        0.0295
      7 C          63.7319   83.6700   10.5583 C.ar    1  UNL1        0.1424
      8 F          64.6987   82.5384   10.7451 F       1  UNL1       -0.2041
      9 C          63.5082   84.2475    9.1921 C.ar    1  UNL1        0.0590
     10 C          62.5415   85.3791    9.0052 C.ar    1  UNL1        0.1408
     11 F          62.3178   85.9566    7.6390 F       1  UNL1       -0.2043
     12 C          61.7481   87.9739   10.7613 C.3     1  UNL1        0.3254
     13 F          62.9185   88.1645    9.8426 F       1  UNL1       -0.1949
     14 F          60.7705   88.0042   11.8986 F       1  UNL1       -0.1949
     15 C          62.6648   88.8832   11.5250 C.ar    1  UNL1        0.1218
     16 C          63.0137   90.2331   10.9720 C.ar    1  UNL1        0.0202
     17 C          63.9303   91.1424   11.7356 C.ar    1  UNL1        0.0029
     18 C          64.4980   90.7017   13.0523 C.ar    1  UNL1        0.0192
     19 C          64.1490   89.3516   13.6052 C.ar    1  UNL1        0.0986
     20 N          63.2324   88.4424   12.8416 N.ar    1  UNL1       -0.2427
     21 C          65.4146   91.6108   13.8159 C.ar    1  UNL1        0.0016
     22 C          65.3948   91.6083   15.3157 C.ar    1  UNL1        0.0024
     23 C          66.3114   92.5175   16.0795 C.ar    1  UNL1        0.0296
     24 C          67.2478   93.4292   15.3433 C.ar    1  UNL1        0.1401
     25 F          68.1644   94.3384   16.1069 F       1  UNL1       -0.2042
     26 C          67.2676   93.4317   13.8433 C.ar    1  UNL1        0.0296
     27 C          66.3510   92.5225   13.0797 C.ar    1  UNL1        0.0024
     28 C          59.8648   88.1962    9.8109 C.3     1  UNL1        0.1679
     29 N          59.6137   88.7495    8.4394 N.ar    1  UNL1       -0.2078
     30 C          60.2196   89.9967    7.8673 C.ar    1  UNL1        0.2216
     31 N          59.6931   90.1708    6.4736 N.ar    1  UNL1       -0.1048
     32 N          58.7618   89.0311    6.1843 N.ar    1  UNL1       -0.0226
     33 N          58.7127   88.1527    7.3992 N.ar    1  UNL1       -0.0428
@<TRIPOS>BOND
     1     1     2    1
     2     2    28    1
     3    28    29    1
     4    29    30   ar
     5    30    31   ar
     6    31    32   ar
     7    32    33   ar
     8     2     4    1
     9     4     5   ar
    10     5     6   ar
    11     6     7   ar
    12     7     8    1
    13     7     9   ar
    14     9    10   ar
    15    10    11    1
    16     2    12    1
    17    12    13    1
    18    12    14    1
    19    12    15    1
    20    15    16   ar
    21    16    17   ar
    22    17    18   ar
    23    18    21    1
    24    21    22   ar
    25    22    23   ar
    26    23    24   ar
    27    24    25    1
    28    24    26   ar
    29    26    27   ar
    30    18    19   ar
    31    19    20   ar
    32    33    29   ar
    33    10     4   ar
    34    20    15   ar
    35    27    21   ar
    36     1     3    1
@<TRIPOS>MOLECULE
*****
 33 36 0 0 0
SMALL
GASTEIGER

@<TRIPOS>ATOM
      1 O          67.5759   93.6441   13.9832 O.3     1  UNL1       -0.3755
      2 C          66.5469   92.8247   13.2624 C.3     1  UNL1        0.1932
      3 H          68.1503   94.0835   13.3367 H       1  UNL1        0.2110
      4 C          66.5952   93.7804   12.1072 C.ar    1  UNL1        0.0368
      5 C          66.0705   95.1766   12.2664 C.ar    1  UNL1        0.0028
      6 C          66.1188   96.1322   11.1113 C.ar    1  UNL1        0.0295
      7 C          66.6917   95.6917    9.7969 C.ar    1  UNL1        0.1424
      8 F          66.7399   96.6474    8.6417 F       1  UNL1       -0.2041
      9 C          67.2163   94.2955    9.6377 C.ar    1  UNL1        0.0590
     10 C          67.1681   93.3398   10.7928 C.ar    1  UNL1        0.1408
     11 F          67.6928   91.9436   10.6335 F       1  UNL1       -0.2043
     12 C          65.5179   92.0052   12.5415 C.3     1  UNL1        0.3254
     13 F          64.6042   93.0259   11.9303 F       1  UNL1       -0.1949
     14 F          66.2030   90.7490   12.9917 F       1  UNL1       -0.1949
     15 C          64.4889   91.1858   11.8206 C.ar    1  UNL1        0.1218
     16 C          63.9791   91.6308   10.4820 C.ar    1  UNL1        0.0202
     17 C          62.9500   90.8113    9.7611 C.ar    1  UNL1        0.0029
     18 C          62.4308   89.5469   10.3789 C.ar    1  UNL1        0.0192
     19 C          62.9406   89.1020   11.7177 C.ar    1  UNL1        0.0986
     20 N          63.9697   89.9214   12.4385 N.ar    1  UNL1       -0.2427
     21 C          61.4018   88.7275    9.6581 C.ar    1  UNL1        0.0016
     22 C          61.4195   87.2320    9.7722 C.ar    1  UNL1        0.0024
     23 C          60.3905   86.4125    9.0514 C.ar    1  UNL1        0.0296
     24 C          59.3437   87.0886    8.2165 C.ar    1  UNL1        0.1401
     25 F          58.3147   86.2692    7.4957 F       1  UNL1       -0.2042
     26 C          59.3259   88.5842    8.1024 C.ar    1  UNL1        0.0296
     27 C          60.3549   89.4036    8.8232 C.ar    1  UNL1        0.0024
     28 C          66.4987   91.8691   14.4175 C.3     1  UNL1        0.1679
     29 N          65.4368   92.0140   15.4670 N.ar    1  UNL1       -0.2078
     30 C          64.1849   91.1948   15.5736 C.ar    1  UNL1        0.2216
     31 N          63.4147   91.6781   16.7666 N.ar    1  UNL1       -0.1048
     32 N          64.1907   92.7961   17.3974 N.ar    1  UNL1       -0.0226
     33 N          65.4405   93.0037   16.5942 N.ar    1  UNL1       -0.0428
@<TRIPOS>BOND
     1     1     2    1
     2     2    28    1
     3    28    29    1
     4    29    30   ar
     5    30    31   ar
     6    31    32   ar
     7    32    33   ar
     8     2     4    1
     9     4     5   ar
    10     5     6   ar
    11     6     7   ar
    12     7     8    1
    13     7     9   ar
    14     9    10   ar
    15    10    11    1
    16     2    12    1
    17    12    13    1
    18    12    14    1
    19    12    15    1
    20    15    16   ar
    21    16    17   ar
    22    17    18   ar
    23    18    21    1
    24    21    22   ar
    25    22    23   ar
    26    23    24   ar
    27    24    25    1
    28    24    26   ar
    29    26    27   ar
    30    18    19   ar
    31    19    20   ar
    32    33    29   ar
    33    10     4   ar
    34    20    15   ar
    35    27    21   ar
    36     1     3    1
@<TRIPOS>MOLECULE
*****
 33 36 0 0 0
SMALL
GASTEIGER

@<TRIPOS>ATOM
      1 O          59.6933   86.3472    8.4413 O.3     1  UNL1       -0.3755
      2 C          60.5972   87.2382    9.2405 C.3     1  UNL1        0.1932
      3 H          60.2238   85.6797    7.9787 H       1  UNL1        0.2110
      4 C          61.5678   86.1064    9.4047 C.ar    1  UNL1        0.0368
      5 C          62.3360   85.5994    8.2203 C.ar    1  UNL1        0.0028
      6 C          63.3066   84.4676    8.3844 C.ar    1  UNL1        0.0295
      7 C          63.5089   83.8428    9.7329 C.ar    1  UNL1        0.1424
      8 F          64.4795   82.7109    9.8970 F       1  UNL1       -0.2041
      9 C          62.7407   84.3497   10.9173 C.ar    1  UNL1        0.0590
     10 C          61.7702   85.4815   10.7532 C.ar    1  UNL1        0.1408
     11 F          61.0019   85.9884   11.9376 F       1  UNL1       -0.2043
     12 C          61.5011   88.1293   10.0398 C.3     1  UNL1        0.3254
     13 F          62.8215   88.0335    9.3345 F       1  UNL1       -0.1949
     14 F          60.3657   88.4503   10.9660 F       1  UNL1       -0.1949
     15 C          62.4051   89.0205   10.8391 C.ar    1  UNL1        0.1218
     16 C          62.8843   88.5837   12.1917 C.ar    1  UNL1        0.0202
     17 C          63.7883   89.4748   12.9909 C.ar    1  UNL1        0.0029
     18 C          64.2130   90.8027   12.4375 C.ar    1  UNL1        0.0192
     19 C          63.7338   91.2395   11.0849 C.ar    1  UNL1        0.0986
     20 N          62.8299   90.3484   10.2857 N.ar    1  UNL1       -0.2427
     21 C          65.1170   91.6938   13.2367 C.ar    1  UNL1        0.0016
     22 C          65.6801   92.9392   12.6187 C.ar    1  UNL1        0.0024
     23 C          66.5841   93.8304   13.4179 C.ar    1  UNL1        0.0296
     24 C          66.9249   93.4762   14.8351 C.ar    1  UNL1        0.1401
     25 F          67.8289   94.3673   15.6343 F       1  UNL1       -0.2042
     26 C          66.3617   92.2307   15.4531 C.ar    1  UNL1        0.0296
     27 C          65.4578   91.3396   14.6539 C.ar    1  UNL1        0.0024
     28 C          59.6266   88.3700    9.0764 C.3     1  UNL1        0.1679
     29 N          59.5353   89.0957    7.7668 N.ar    1  UNL1       -0.2078
     30 C          58.3901   89.0299    6.8003 C.ar    1  UNL1        0.2216
     31 N          58.7201   89.9081    5.6299 N.ar    1  UNL1       -0.1048
     32 N          60.0693   90.5168    5.8731 N.ar    1  UNL1       -0.0226
     33 N          60.5731   90.0147    7.1938 N.ar    1  UNL1       -0.0428
@<TRIPOS>BOND
     1     1     2    1
     2     2    28    1
     3    28    29    1
     4    29    30   ar
     5    30    31   ar
     6    31    32   ar
     7    32    33   ar
     8     2     4    1
     9     4     5   ar
    10     5     6   ar
    11     6     7   ar
    12     7     8    1
    13     7     9   ar
    14     9    10   ar
    15    10    11    1
    16     2    12    1
    17    12    13    1
    18    12    14    1
    19    12    15    1
    20    15    16   ar
    21    16    17   ar
    22    17    18   ar
    23    18    21    1
    24    21    22   ar
    25    22    23   ar
    26    23    24   ar
    27    24    25    1
    28    24    26   ar
    29    26    27   ar
    30    18    19   ar
    31    19    20   ar
    32    33    29   ar
    33    10     4   ar
    34    20    15   ar
    35    27    21   ar
    36     1     3    1
@<TRIPOS>MOLECULE
*****
 33 36 0 0 0
SMALL
GASTEIGER

@<TRIPOS>ATOM
      1 O          64.2181   91.4385   15.8586 O.3     1  UNL1       -0.3755
      2 C          63.8376   90.5788   14.6898 C.3     1  UNL1        0.1932
      3 H          65.1321   91.7449   15.7506 H       1  UNL1        0.2110
      4 C          64.7834   91.3483   13.8160 C.ar    1  UNL1        0.0368
      5 C          64.2726   92.0463   12.5904 C.ar    1  UNL1        0.0028
      6 C          65.2182   92.8157   11.7166 C.ar    1  UNL1        0.0295
      7 C          66.6746   92.8873   12.0683 C.ar    1  UNL1        0.1424
      8 F          67.6203   93.6568   11.1944 F       1  UNL1       -0.2041
      9 C          67.1854   92.1893   13.2938 C.ar    1  UNL1        0.0590
     10 C          66.2397   91.4199   14.1677 C.ar    1  UNL1        0.1408
     11 F          66.7505   90.7219   15.3933 F       1  UNL1       -0.2043
     12 C          63.4571   89.7191   13.5211 C.3     1  UNL1        0.3254
     13 F          64.7476   89.0749   13.1090 F       1  UNL1       -0.1949
     14 F          62.0323   90.1686   13.6543 F       1  UNL1       -0.1949
     15 C          63.0767   88.8593   12.3522 C.ar    1  UNL1        0.1218
     16 C          62.7120   89.4928   11.0424 C.ar    1  UNL1        0.0202
     17 C          62.3316   88.6330    9.8736 C.ar    1  UNL1        0.0029
     18 C          62.3157   87.1398   10.0147 C.ar    1  UNL1        0.0192
     19 C          62.6804   86.5063   11.3246 C.ar    1  UNL1        0.0986
     20 N          63.0608   87.3661   12.4933 N.ar    1  UNL1       -0.2427
     21 C          61.9353   86.2800    8.8459 C.ar    1  UNL1        0.0016
     22 C          62.9628   85.4027    8.1943 C.ar    1  UNL1        0.0024
     23 C          62.5823   84.5429    7.0255 C.ar    1  UNL1        0.0296
     24 C          61.1744   84.5604    6.5084 C.ar    1  UNL1        0.1401
     25 F          60.7939   83.7006    5.3397 F       1  UNL1       -0.2042
     26 C          60.1469   85.4377    7.1601 C.ar    1  UNL1        0.0296
     27 C          60.5273   86.2975    8.3288 C.ar    1  UNL1        0.0024
     28 C          62.8920   89.8094   15.5637 C.3     1  UNL1        0.1679
     29 N          63.2344   88.4134   15.9925 N.ar    1  UNL1       -0.2078
     30 C          62.7463   87.7276   17.2340 C.ar    1  UNL1        0.2216
     31 N          63.3353   86.3484   17.2638 N.ar    1  UNL1       -0.1048
     32 N          64.1875   86.1818   16.0407 N.ar    1  UNL1       -0.0226
     33 N          64.1251   87.4580   15.2550 N.ar    1  UNL1       -0.0428
@<TRIPOS>BOND
     1     1     2    1
     2     2    28    1
     3    28    29    1
     4    29    30   ar
     5    30    31   ar
     6    31    32   ar
     7    32    33   ar
     8     2     4    1
     9     4     5   ar
    10     5     6   ar
    11     6     7   ar
    12     7     8    1
    13     7     9   ar
    14     9    10   ar
    15    10    11    1
    16     2    12    1
    17    12    13    1
    18    12    14    1
    19    12    15    1
    20    15    16   ar
    21    16    17   ar
    22    17    18   ar
    23    18    21    1
    24    21    22   ar
    25    22    23   ar
    26    23    24   ar
    27    24    25    1
    28    24    26   ar
    29    26    27   ar
    30    18    19   ar
    31    19    20   ar
    32    33    29   ar
    33    10     4   ar
    34    20    15   ar
    35    27    21   ar
    36     1     3    1
@<TRIPOS>MOLECULE
*****
 33 36 0 0 0
SMALL
GASTEIGER

@<TRIPOS>ATOM
      1 O          67.1132   94.5405   13.3125 O.3     1  UNL1       -0.3755
      2 C          66.1544   93.5744   12.6820 C.3     1  UNL1        0.1932
      3 H          67.7411   94.8557   12.6438 H       1  UNL1        0.2110
      4 C          66.3018   94.2850   11.3692 C.ar    1  UNL1        0.0368
      5 C          65.7024   95.6473   11.1823 C.ar    1  UNL1        0.0028
      6 C          65.8498   96.3578    9.8695 C.ar    1  UNL1        0.0295
      7 C          66.5966   95.7061    8.7437 C.ar    1  UNL1        0.1424
      8 F          66.7440   96.4167    7.4309 F       1  UNL1       -0.2041
      9 C          67.1960   94.3438    8.9306 C.ar    1  UNL1        0.0590
     10 C          67.0486   93.6333   10.2434 C.ar    1  UNL1        0.1408
     11 F          67.6480   92.2710   10.4303 F       1  UNL1       -0.2043
     12 C          65.1957   92.6084   12.0516 C.3     1  UNL1        0.3254
     13 F          64.5667   93.3947   10.9396 F       1  UNL1       -0.1949
     14 F          65.6047   91.5572   13.0402 F       1  UNL1       -0.1949
     15 C          64.2368   91.6424   11.4210 C.ar    1  UNL1        0.1218
     16 C          63.7083   91.9027   10.0416 C.ar    1  UNL1        0.0202
     17 C          62.7495   90.9367    9.4111 C.ar    1  UNL1        0.0029
     18 C          62.3193   89.7103   10.1600 C.ar    1  UNL1        0.0192
     19 C          62.8479   89.4500   11.5395 C.ar    1  UNL1        0.0986
     20 N          63.8066   90.4160   12.1700 N.ar    1  UNL1       -0.2427
     21 C          61.3605   88.7443    9.5296 C.ar    1  UNL1        0.0016
     22 C          60.2440   89.2516    8.6659 C.ar    1  UNL1        0.0024
     23 C          59.2852   88.2855    8.0354 C.ar    1  UNL1        0.0296
     24 C          59.4429   86.8122    8.2686 C.ar    1  UNL1        0.1401
     25 F          58.4841   85.8462    7.6382 F       1  UNL1       -0.2042
     26 C          60.5595   86.3049    9.1324 C.ar    1  UNL1        0.0296
     27 C          61.5182   87.2709    9.7628 C.ar    1  UNL1        0.0024
     28 C          66.0070   92.8639   13.9948 C.3     1  UNL1        0.1679
     29 N          67.2089   92.6346   14.8626 N.ar    1  UNL1       -0.2078
     30 C          67.2131   92.5585   16.3606 C.ar    1  UNL1        0.2216
     31 N          68.6243   92.3180   16.8086 N.ar    1  UNL1       -0.1048
     32 N          69.4923   92.2455   15.5874 N.ar    1  UNL1       -0.0226
     33 N          68.6175   92.4411   14.3847 N.ar    1  UNL1       -0.0428
@<TRIPOS>BOND
     1     1     2    1
     2     2    28    1
     3    28    29    1
     4    29    30   ar
     5    30    31   ar
     6    31    32   ar
     7    32    33   ar
     8     2     4    1
     9     4     5   ar
    10     5     6   ar
    11     6     7   ar
    12     7     8    1
    13     7     9   ar
    14     9    10   ar
    15    10    11    1
    16     2    12    1
    17    12    13    1
    18    12    14    1
    19    12    15    1
    20    15    16   ar
    21    16    17   ar
    22    17    18   ar
    23    18    21    1
    24    21    22   ar
    25    22    23   ar
    26    23    24   ar
    27    24    25    1
    28    24    26   ar
    29    26    27   ar
    30    18    19   ar
    31    19    20   ar
    32    33    29   ar
    33    10     4   ar
    34    20    15   ar
    35    27    21   ar
    36     1     3    1
@<TRIPOS>MOLECULE
*****
 33 36 0 0 0
SMALL
GASTEIGER

@<TRIPOS>ATOM
      1 O          64.8539   83.3725   15.1697 O.3     1  UNL1       -0.3755
      2 C          64.1222   84.1219   14.0959 C.3     1  UNL1        0.1932
      3 H          65.2469   84.0028   15.7934 H       1  UNL1        0.2110
      4 C          63.8430   85.2344   15.0627 C.ar    1  UNL1        0.0368
      5 C          64.4811   86.5774   14.8652 C.ar    1  UNL1        0.0028
      6 C          64.2019   87.6899   15.8319 C.ar    1  UNL1        0.0295
      7 C          63.2846   87.4592   16.9961 C.ar    1  UNL1        0.1424
      8 F          63.0054   88.5717   17.9628 F       1  UNL1       -0.2041
      9 C          62.6466   86.1162   17.1936 C.ar    1  UNL1        0.0590
     10 C          62.9257   85.0037   16.2269 C.ar    1  UNL1        0.1408
     11 F          62.2876   83.6607   16.4244 F       1  UNL1       -0.2043
     12 C          63.3905   84.8713   13.0222 C.3     1  UNL1        0.3254
     13 F          62.0595   85.1832   13.6398 F       1  UNL1       -0.1949
     14 F          64.5797   84.7368   12.1180 F       1  UNL1       -0.1949
     15 C          62.6587   85.6208   11.9484 C.ar    1  UNL1        0.1218
     16 C          62.0768   84.8807   10.7807 C.ar    1  UNL1        0.0202
     17 C          61.3450   85.6301    9.7069 C.ar    1  UNL1        0.0029
     18 C          61.1953   87.1197    9.8009 C.ar    1  UNL1        0.0192
     19 C          61.7773   87.8598   10.9687 C.ar    1  UNL1        0.0986
     20 N          62.5090   87.1103   12.0424 N.ar    1  UNL1       -0.2427
     21 C          60.4636   87.8691    8.7272 C.ar    1  UNL1        0.0016
     22 C          59.6895   87.1195    7.6838 C.ar    1  UNL1        0.0024
     23 C          58.9577   87.8690    6.6101 C.ar    1  UNL1        0.0296
     24 C          59.0001   89.3681    6.5798 C.ar    1  UNL1        0.1401
     25 F          58.2684   90.1175    5.5061 F       1  UNL1       -0.2042
     26 C          59.7743   90.1177    7.6233 C.ar    1  UNL1        0.0296
     27 C          60.5060   89.3682    8.6970 C.ar    1  UNL1        0.0024
     28 C          64.4014   83.0095   13.1293 C.3     1  UNL1        0.1679
     29 N          63.6080   81.7384   13.1991 N.ar    1  UNL1       -0.2078
     30 C          63.1827   80.8992   12.0308 C.ar    1  UNL1        0.2216
     31 N          62.4125   79.7254   12.5591 N.ar    1  UNL1       -0.1048
     32 N          62.3618   79.8392   14.0540 N.ar    1  UNL1       -0.0226
     33 N          63.1007   81.0832   14.4495 N.ar    1  UNL1       -0.0428
@<TRIPOS>BOND
     1     1     2    1
     2     2    28    1
     3    28    29    1
     4    29    30   ar
     5    30    31   ar
     6    31    32   ar
     7    32    33   ar
     8     2     4    1
     9     4     5   ar
    10     5     6   ar
    11     6     7   ar
    12     7     8    1
    13     7     9   ar
    14     9    10   ar
    15    10    11    1
    16     2    12    1
    17    12    13    1
    18    12    14    1
    19    12    15    1
    20    15    16   ar
    21    16    17   ar
    22    17    18   ar
    23    18    21    1
    24    21    22   ar
    25    22    23   ar
    26    23    24   ar
    27    24    25    1
    28    24    26   ar
    29    26    27   ar
    30    18    19   ar
    31    19    20   ar
    32    33    29   ar
    33    10     4   ar
    34    20    15   ar
    35    27    21   ar
    36     1     3    1
@<TRIPOS>MOLECULE
*****
 33 36 0 0 0
SMALL
GASTEIGER

@<TRIPOS>ATOM
      1 O          60.2294   85.7607    9.9202 O.3     1  UNL1       -0.3755
      2 C          61.1461   86.7008   10.6453 C.3     1  UNL1        0.1932
      3 H          60.7527   85.0665    9.4899 H       1  UNL1        0.2110
      4 C          62.1224   85.5825   10.8608 C.ar    1  UNL1        0.0368
      5 C          62.9188   85.0494    9.7069 C.ar    1  UNL1        0.0028
      6 C          63.8950   83.9312    9.9223 C.ar    1  UNL1        0.0295
      7 C          64.0749   83.3460   11.2917 C.ar    1  UNL1        0.1424
      8 F          65.0512   82.2277   11.5072 F       1  UNL1       -0.2041
      9 C          63.2785   83.8791   12.4456 C.ar    1  UNL1        0.0590
     10 C          62.3023   84.9974   12.2302 C.ar    1  UNL1        0.1408
     11 F          61.5059   85.5305   13.3841 F       1  UNL1       -0.2043
     12 C          62.0628   87.6409   11.3705 C.3     1  UNL1        0.3254
     13 F          61.1332   88.6033   12.0486 F       1  UNL1       -0.1949
     14 F          63.2493   86.8835   10.8524 F       1  UNL1       -0.1949
     15 C          62.9795   88.5810   12.0956 C.ar    1  UNL1        0.1218
     16 C          63.2398   89.9507   11.5423 C.ar    1  UNL1        0.0202
     17 C          64.1565   90.8908   12.2674 C.ar    1  UNL1        0.0029
     18 C          64.8128   90.4613   13.5460 C.ar    1  UNL1        0.0192
     19 C          64.5524   89.0916   14.0994 C.ar    1  UNL1        0.0986
     20 N          63.6358   88.1515   13.3742 N.ar    1  UNL1       -0.2427
     21 C          65.7295   91.4014   14.2712 C.ar    1  UNL1        0.0016
     22 C          67.0052   91.8531   13.6243 C.ar    1  UNL1        0.0024
     23 C          67.9219   92.7932   14.3495 C.ar    1  UNL1        0.0296
     24 C          67.5629   93.2816   15.7216 C.ar    1  UNL1        0.1401
     25 F          68.4796   94.2217   16.4468 F       1  UNL1       -0.2042
     26 C          66.2871   92.8298   16.3685 C.ar    1  UNL1        0.0296
     27 C          65.3705   91.8898   15.6433 C.ar    1  UNL1        0.0024
     28 C          60.1698   87.8190   10.4298 C.3     1  UNL1        0.1679
     29 N          59.8571   88.2839    9.0384 N.ar    1  UNL1       -0.2078
     30 C          59.2102   87.4662    7.9601 C.ar    1  UNL1        0.2216
     31 N          59.0897   88.3251    6.7362 N.ar    1  UNL1       -0.1048
     32 N          59.6622   89.6736    7.0581 N.ar    1  UNL1       -0.0226
     33 N          60.1365   89.6481    8.4809 N.ar    1  UNL1       -0.0428
@<TRIPOS>BOND
     1     1     2    1
     2     2    28    1
     3    28    29    1
     4    29    30   ar
     5    30    31   ar
     6    31    32   ar
     7    32    33   ar
     8     2     4    1
     9     4     5   ar
    10     5     6   ar
    11     6     7   ar
    12     7     8    1
    13     7     9   ar
    14     9    10   ar
    15    10    11    1
    16     2    12    1
    17    12    13    1
    18    12    14    1
    19    12    15    1
    20    15    16   ar
    21    16    17   ar
    22    17    18   ar
    23    18    21    1
    24    21    22   ar
    25    22    23   ar
    26    23    24   ar
    27    24    25    1
    28    24    26   ar
    29    26    27   ar
    30    18    19   ar
    31    19    20   ar
    32    33    29   ar
    33    10     4   ar
    34    20    15   ar
    35    27    21   ar
    36     1     3    1
@<TRIPOS>MOLECULE
*****
 33 36 0 0 0
SMALL
GASTEIGER

@<TRIPOS>ATOM
      1 O          60.8364   85.0029   10.6370 O.3     1  UNL1       -0.3755
      2 C          61.6809   86.0570   11.2894 C.3     1  UNL1        0.1932
      3 H          61.3349   84.1721   10.5907 H       1  UNL1        0.2110
      4 C          62.3876   84.9991   12.0840 C.ar    1  UNL1        0.0368
      5 C          62.1058   84.8482   13.5495 C.ar    1  UNL1        0.0028
      6 C          62.8125   83.7903   14.3441 C.ar    1  UNL1        0.0295
      7 C          63.8010   82.8833   13.6732 C.ar    1  UNL1        0.1424
      8 F          64.5077   81.8254   14.4678 F       1  UNL1       -0.2041
      9 C          64.0828   83.0342   12.2076 C.ar    1  UNL1        0.0590
     10 C          63.3761   84.0921   11.4130 C.ar    1  UNL1        0.1408
     11 F          63.6579   84.2430    9.9475 F       1  UNL1       -0.2043
     12 C          62.5253   87.1112   11.9417 C.3     1  UNL1        0.3254
     13 F          63.6571   86.3413   12.5553 F       1  UNL1       -0.1949
     14 F          61.5695   88.1675   11.4720 F       1  UNL1       -0.1949
     15 C          63.3699   88.1654   12.5941 C.ar    1  UNL1        0.1218
     16 C          64.1201   87.8515   13.8544 C.ar    1  UNL1        0.0202
     17 C          64.9647   88.9057   14.5068 C.ar    1  UNL1        0.0029
     18 C          65.0589   90.2737   13.8987 C.ar    1  UNL1        0.0192
     19 C          64.3086   90.5875   12.6383 C.ar    1  UNL1        0.0986
     20 N          63.4641   89.5333   11.9860 N.ar    1  UNL1       -0.2427
     21 C          65.9034   91.3278   14.5510 C.ar    1  UNL1        0.0016
     22 C          67.2146   91.7232   13.9391 C.ar    1  UNL1        0.0024
     23 C          68.0591   92.7774   14.5914 C.ar    1  UNL1        0.0296
     24 C          67.5925   93.4362   15.8556 C.ar    1  UNL1        0.1401
     25 F          68.4370   94.4903   16.5079 F       1  UNL1       -0.2042
     26 C          66.2813   93.0407   16.4676 C.ar    1  UNL1        0.0296
     27 C          65.4368   91.9866   15.8153 C.ar    1  UNL1        0.0024
     28 C          60.9741   87.1149   10.4948 C.3     1  UNL1        0.1679
     29 N          60.4206   86.7902    9.1390 N.ar    1  UNL1       -0.2078
     30 C          59.0689   87.1836    8.6211 C.ar    1  UNL1        0.2216
     31 N          58.9346   86.6516    7.2250 N.ar    1  UNL1       -0.1048
     32 N          60.2032   85.9295    6.8801 N.ar    1  UNL1       -0.0226
     33 N          61.1216   86.0151    8.0629 N.ar    1  UNL1       -0.0428
@<TRIPOS>BOND
     1     1     2    1
     2     2    28    1
     3    28    29    1
     4    29    30   ar
     5    30    31   ar
     6    31    32   ar
     7    32    33   ar
     8     2     4    1
     9     4     5   ar
    10     5     6   ar
    11     6     7   ar
    12     7     8    1
    13     7     9   ar
    14     9    10   ar
    15    10    11    1
    16     2    12    1
    17    12    13    1
    18    12    14    1
    19    12    15    1
    20    15    16   ar
    21    16    17   ar
    22    17    18   ar
    23    18    21    1
    24    21    22   ar
    25    22    23   ar
    26    23    24   ar
    27    24    25    1
    28    24    26   ar
    29    26    27   ar
    30    18    19   ar
    31    19    20   ar
    32    33    29   ar
    33    10     4   ar
    34    20    15   ar
    35    27    21   ar
    36     1     3    1
