@<TRIPOS>MOLECULE
*****
 17 18 0 0 0
SMALL
GASTEIGER

@<TRIPOS>ATOM
      1 C          64.7020   90.5095   14.7080 C.3     1  UNL1        0.0340
      2 C          64.1340   89.3504   13.9438 C.2     1  UNL1        0.0128
      3 C          64.5040   88.1161   14.7115 C.2     1  UNL1       -0.0271
      4 C          64.4365   86.6204   14.8050 C.3     1  UNL1        0.0283
      5 C          63.9529   85.3386   14.1944 C.3     1  UNL1        0.0343
      6 C          63.2067   84.6773   13.0737 C.3     1  UNL1        0.1179
      7 C          63.6417   83.5288   13.9351 C.3     1  UNL1        0.0321
      8 O          62.6656   83.4745   12.3592 O.3     1  UNL1       -0.3562
      9 C          62.4348   84.8466   11.7987 C.3     1  UNL1        0.1400
     10 C          61.8824   85.7928   10.7742 C.3     1  UNL1        0.0360
     11 C          61.7247   87.2154   10.3255 C.3     1  UNL1        0.0211
     12 C          61.1208   88.0471    9.2330 C.3     1  UNL1        0.0044
     13 C          61.0425   86.3121    9.3414 C.3     1  UNL1        0.0044
     14 C          62.0120   88.6628   10.5951 C.2     1  UNL1       -0.0234
     15 C          62.6528   89.6754   11.4973 C.2     1  UNL1        0.0371
     16 C          63.4439   89.9317   12.7456 C.2     1  UNL1        0.1911
     17 O          63.6231   91.4183   12.8346 O.2     1  UNL1       -0.2869
@<TRIPOS>BOND
     1     1     2    1
     2     2     3    2
     3     3     4    1
     4     4     5    1
     5     5     6    1
     6     6     7    1
     7     6     8    1
     8     8     9    1
     9     9    10    1
    10    10    11    1
    11    11    12    1
    12    11    13    1
    13    11    14    1
    14    14    15    2
    15    15    16    1
    16    16    17    2
    17    16     2    1
    18     9     6    1
@<TRIPOS>MOLECULE
*****
 17 18 0 0 0
SMALL
GASTEIGER

@<TRIPOS>ATOM
      1 C          63.9747   83.3237   14.1596 C.3     1  UNL1        0.0340
      2 C          63.6929   84.6882   13.6037 C.2     1  UNL1        0.0128
      3 C          64.2947   85.6690   14.5658 C.2     1  UNL1       -0.0271
      4 C          64.5467   87.1073   14.9093 C.3     1  UNL1        0.0283
      5 C          64.3688   88.5463   14.5251 C.3     1  UNL1        0.0343
      6 C          63.8176   89.5292   13.5350 C.3     1  UNL1        0.1179
      7 C          64.4614   90.3978   14.5748 C.3     1  UNL1        0.0321
      8 O          63.5699   90.9216   13.0353 O.3     1  UNL1       -0.3562
      9 C          63.0680   89.7438   12.2536 C.3     1  UNL1        0.1400
     10 C          62.3580   89.1222   11.0876 C.3     1  UNL1        0.0360
     11 C          61.9132   87.8616   10.4073 C.3     1  UNL1        0.0211
     12 C          61.1796   87.3724    9.1937 C.3     1  UNL1        0.0044
     13 C          61.4720   89.0409    9.5922 C.3     1  UNL1        0.0044
     14 C          61.8746   86.3622   10.4285 C.2     1  UNL1       -0.0234
     15 C          62.2545   85.1001   11.1447 C.2     1  UNL1        0.0371
     16 C          62.9324   84.4761   12.3283 C.2     1  UNL1        0.1911
     17 O          62.7856   82.9922   12.1656 O.2     1  UNL1       -0.2869
@<TRIPOS>BOND
     1     1     2    1
     2     2     3    2
     3     3     4    1
     4     4     5    1
     5     5     6    1
     6     6     7    1
     7     6     8    1
     8     8     9    1
     9     9    10    1
    10    10    11    1
    11    11    12    1
    12    11    13    1
    13    11    14    1
    14    14    15    2
    15    15    16    1
    16    16    17    2
    17    16     2    1
    18     9     6    1
@<TRIPOS>MOLECULE
*****
 17 18 0 0 0
SMALL
GASTEIGER

@<TRIPOS>ATOM
      1 C          60.7866   86.6983    8.9305 C.3     1  UNL1        0.0340
      2 C          61.5949   86.8958   10.1786 C.2     1  UNL1        0.0128
      3 C          61.8713   85.5261   10.7242 C.2     1  UNL1       -0.0271
      4 C          62.5153   84.7025   11.7999 C.3     1  UNL1        0.0283
      5 C          63.3225   84.6865   13.0640 C.3     1  UNL1        0.0343
      6 C          64.0368   85.4832   14.1154 C.3     1  UNL1        0.1179
      7 C          64.2395   84.0620   14.5501 C.3     1  UNL1        0.0321
      8 O          64.8465   85.6097   15.3716 O.3     1  UNL1       -0.3562
      9 C          64.4311   86.8396   14.6200 C.3     1  UNL1        0.1400
     10 C          64.3805   88.3251   14.4178 C.3     1  UNL1        0.0360
     11 C          63.9009   89.4679   13.5730 C.3     1  UNL1        0.0211
     12 C          63.9273   90.9655   13.4904 C.3     1  UNL1        0.0044
     13 C          64.6744   90.0100   14.7383 C.3     1  UNL1        0.0044
     14 C          63.1446   89.9054   12.3537 C.2     1  UNL1       -0.0234
     15 C          62.3517   89.4986   11.1471 C.2     1  UNL1        0.0371
     16 C          61.7741   88.3766   10.3363 C.2     1  UNL1        0.1911
     17 O          61.0667   89.0137    9.1770 O.2     1  UNL1       -0.2869
@<TRIPOS>BOND
     1     1     2    1
     2     2     3    2
     3     3     4    1
     4     4     5    1
     5     5     6    1
     6     6     7    1
     7     6     8    1
     8     8     9    1
     9     9    10    1
    10    10    11    1
    11    11    12    1
    12    11    13    1
    13    11    14    1
    14    14    15    2
    15    15    16    1
    16    16    17    2
    17    16     2    1
    18     9     6    1
@<TRIPOS>MOLECULE
*****
 17 18 0 0 0
SMALL
GASTEIGER

@<TRIPOS>ATOM
      1 C          63.3688   83.2077   13.2658 C.3     1  UNL1        0.0340
      2 C          63.2217   84.6657   12.9453 C.2     1  UNL1        0.0128
      3 C          62.3981   84.7423   11.6940 C.2     1  UNL1       -0.0271
      4 C          61.7531   85.6161   10.6593 C.3     1  UNL1        0.0283
      5 C          61.4915   87.0097   10.1699 C.3     1  UNL1        0.0343
      6 C          61.6964   88.4806   10.3811 C.3     1  UNL1        0.1179
      7 C          60.8681   88.4145    9.1322 C.3     1  UNL1        0.0321
      8 O          61.5107   89.9203   10.0034 O.3     1  UNL1       -0.3562
      9 C          62.3026   89.5617   11.2258 C.3     1  UNL1        0.1400
     10 C          63.1177   89.9099   12.4359 C.3     1  UNL1        0.0360
     11 C          63.8830   89.4147   13.6271 C.3     1  UNL1        0.0211
     12 C          64.6805   89.8999   14.8013 C.3     1  UNL1        0.0044
     13 C          63.9322   90.9136   13.6010 C.3     1  UNL1        0.0044
     14 C          64.3554   88.2330   14.4213 C.2     1  UNL1       -0.0234
     15 C          64.3850   86.7404   14.5663 C.2     1  UNL1        0.0371
     16 C          63.9623   85.4105   14.0161 C.2     1  UNL1        0.1911
     17 O          64.5268   84.3722   14.9399 O.2     1  UNL1       -0.2869
@<TRIPOS>BOND
     1     1     2    1
     2     2     3    2
     3     3     4    1
     4     4     5    1
     5     5     6    1
     6     6     7    1
     7     6     8    1
     8     8     9    1
     9     9    10    1
    10    10    11    1
    11    11    12    1
    12    11    13    1
    13    11    14    1
    14    14    15    2
    15    15    16    1
    16    16    17    2
    17    16     2    1
    18     9     6    1
@<TRIPOS>MOLECULE
*****
 17 18 0 0 0
SMALL
GASTEIGER

@<TRIPOS>ATOM
      1 C          64.6062   85.0512   15.6537 C.3     1  UNL1        0.0340
      2 C          64.1062   85.9268   14.5431 C.2     1  UNL1        0.0128
      3 C          64.4859   87.3311   14.9084 C.2     1  UNL1       -0.0271
      4 C          64.4634   88.7830   14.5320 C.3     1  UNL1        0.0283
      5 C          64.0457   89.8213   13.5333 C.3     1  UNL1        0.0343
      6 C          63.3655   90.1165   12.2293 C.3     1  UNL1        0.1179
      7 C          63.8037   91.4669   12.7133 C.3     1  UNL1        0.0321
      8 O          62.8920   91.0484   11.1536 O.3     1  UNL1       -0.3562
      9 C          62.6388   89.5747   11.0342 C.3     1  UNL1        0.1400
     10 C          62.0962   88.3681   10.3273 C.3     1  UNL1        0.0360
     11 C          61.9101   86.8797   10.3330 C.3     1  UNL1        0.0211
     12 C          61.3225   85.7617    9.5237 C.3     1  UNL1        0.0044
     13 C          61.2963   87.4461    9.0871 C.3     1  UNL1        0.0044
     14 C          62.1395   85.5821   11.0497 C.2     1  UNL1       -0.0234
     15 C          62.7116   84.8872   12.2496 C.2     1  UNL1        0.0371
     16 C          63.4448   85.0157   13.5519 C.2     1  UNL1        0.1911
     17 O          63.5720   83.6268   14.1041 O.2     1  UNL1       -0.2869
@<TRIPOS>BOND
     1     1     2    1
     2     2     3    2
     3     3     4    1
     4     4     5    1
     5     5     6    1
     6     6     7    1
     7     6     8    1
     8     8     9    1
     9     9    10    1
    10    10    11    1
    11    11    12    1
    12    11    13    1
    13    11    14    1
    14    14    15    2
    15    15    16    1
    16    16    17    2
    17    16     2    1
    18     9     6    1
@<TRIPOS>MOLECULE
*****
 17 18 0 0 0
SMALL
GASTEIGER

@<TRIPOS>ATOM
      1 C          64.1112   91.6864   13.0567 C.3     1  UNL1        0.0340
      2 C          63.7930   90.2430   12.8006 C.2     1  UNL1        0.0128
      3 C          63.1022   90.1923   11.4701 C.2     1  UNL1       -0.0271
      4 C          62.4514   89.3443   10.4176 C.3     1  UNL1        0.0283
      5 C          62.0473   87.9685    9.9775 C.3     1  UNL1        0.0343
      6 C          62.0181   86.5015   10.2893 C.3     1  UNL1        0.1179
      7 C          61.3427   86.5925    8.9531 C.3     1  UNL1        0.0321
      8 O          61.6705   85.0775    9.9711 O.3     1  UNL1       -0.3562
      9 C          62.3731   85.4092   11.2541 C.3     1  UNL1        0.1400
     10 C          62.9997   85.0384   12.5656 C.3     1  UNL1        0.0360
     11 C          63.6987   85.5067   13.8073 C.3     1  UNL1        0.0211
     12 C          64.2922   85.0004   15.0886 C.3     1  UNL1        0.0044
     13 C          63.5372   84.0167   13.8676 C.3     1  UNL1        0.0044
     14 C          64.2484   86.6656   14.5851 C.2     1  UNL1       -0.0234
     15 C          64.4742   88.1470   14.6520 C.2     1  UNL1        0.0371
     16 C          64.3044   89.4806   13.9867 C.2     1  UNL1        0.1911
     17 O          64.9108   90.4943   14.9112 O.2     1  UNL1       -0.2869
@<TRIPOS>BOND
     1     1     2    1
     2     2     3    2
     3     3     4    1
     4     4     5    1
     5     5     6    1
     6     6     7    1
     7     6     8    1
     8     8     9    1
     9     9    10    1
    10    10    11    1
    11    11    12    1
    12    11    13    1
    13    11    14    1
    14    14    15    2
    15    15    16    1
    16    16    17    2
    17    16     2    1
    18     9     6    1
@<TRIPOS>MOLECULE
*****
 17 18 0 0 0
SMALL
GASTEIGER

@<TRIPOS>ATOM
      1 C          60.4187   88.4369    8.6896 C.3     1  UNL1        0.0340
      2 C          61.2652   88.2294    9.9104 C.2     1  UNL1        0.0128
      3 C          61.6926   89.5934   10.3651 C.2     1  UNL1       -0.0271
      4 C          62.4614   90.4075   11.3633 C.3     1  UNL1        0.0283
      5 C          63.3273   90.4131   12.5881 C.3     1  UNL1        0.0343
      6 C          64.0155   89.6085   13.6507 C.3     1  UNL1        0.1179
      7 C          64.3691   91.0249   13.9950 C.3     1  UNL1        0.0321
      8 O          64.8703   89.4717   14.8756 O.3     1  UNL1       -0.3562
      9 C          64.3074   88.2491   14.2136 C.3     1  UNL1        0.1400
     10 C          64.1104   86.7665   14.0982 C.3     1  UNL1        0.0360
     11 C          63.4870   85.6316   13.3411 C.3     1  UNL1        0.0211
     12 C          63.3714   84.1360   13.3423 C.3     1  UNL1        0.0044
     13 C          64.2632   85.0804   14.5003 C.3     1  UNL1        0.0044
     14 C          62.6352   85.2045   12.1826 C.2     1  UNL1       -0.0234
     15 C          61.8254   85.6208   10.9907 C.2     1  UNL1        0.0371
     16 C          61.3146   86.7485   10.1436 C.2     1  UNL1        0.1911
     17 O          60.4960   86.1215    9.0542 O.2     1  UNL1       -0.2869
@<TRIPOS>BOND
     1     1     2    1
     2     2     3    2
     3     3     4    1
     4     4     5    1
     5     5     6    1
     6     6     7    1
     7     6     8    1
     8     8     9    1
     9     9    10    1
    10    10    11    1
    11    11    12    1
    12    11    13    1
    13    11    14    1
    14    14    15    2
    15    15    16    1
    16    16    17    2
    17    16     2    1
    18     9     6    1
@<TRIPOS>MOLECULE
*****
 17 18 0 0 0
SMALL
GASTEIGER

@<TRIPOS>ATOM
      1 C          63.6801   82.2204   10.3221 C.3     1  UNL1        0.0340
      2 C          63.5790   83.6189   10.8550 C.2     1  UNL1        0.0128
      3 C          62.9499   84.4405    9.7691 C.2     1  UNL1       -0.0271
      4 C          62.4636   85.7893    9.3282 C.3     1  UNL1        0.0283
      5 C          62.2745   87.2369    9.6723 C.3     1  UNL1        0.0343
      6 C          62.4426   88.3239   10.6922 C.3     1  UNL1        0.1179
      7 C          61.8088   89.0262    9.5281 C.3     1  UNL1        0.0321
      8 O          62.3118   89.7420   11.1632 O.3     1  UNL1       -0.3562
      9 C          62.9145   88.7051   12.0641 C.3     1  UNL1        0.1400
     10 C          63.5405   88.2594   13.3524 C.3     1  UNL1        0.0360
     11 C          64.1216   87.1284   14.1480 C.3     1  UNL1        0.0211
     12 C          64.7352   86.8177   15.4811 C.3     1  UNL1        0.0044
     13 C          64.1710   88.3824   14.9696 C.3     1  UNL1        0.0044
     14 C          64.4736   85.6711   14.1984 C.2     1  UNL1       -0.0234
     15 C          64.4846   84.3503   13.4875 C.2     1  UNL1        0.0371
     16 C          64.1511   83.5853   12.2412 C.2     1  UNL1        0.1911
     17 O          64.5745   82.1678   12.4893 O.2     1  UNL1       -0.2869
@<TRIPOS>BOND
     1     1     2    1
     2     2     3    2
     3     3     4    1
     4     4     5    1
     5     5     6    1
     6     6     7    1
     7     6     8    1
     8     8     9    1
     9     9    10    1
    10    10    11    1
    11    11    12    1
    12    11    13    1
    13    11    14    1
    14    14    15    2
    15    15    16    1
    16    16    17    2
    17    16     2    1
    18     9     6    1
@<TRIPOS>MOLECULE
*****
 17 18 0 0 0
SMALL
GASTEIGER

@<TRIPOS>ATOM
      1 C          60.7562   89.0083    8.9204 C.3     1  UNL1        0.0340
      2 C          61.4726   88.2534   10.0006 C.2     1  UNL1        0.0128
      3 C          61.3090   86.7975    9.6785 C.2     1  UNL1       -0.0271
      4 C          61.6010   85.3785   10.0673 C.3     1  UNL1        0.0283
      5 C          62.2559   84.4468   11.0435 C.3     1  UNL1        0.0343
      6 C          63.0659   84.2983   12.2973 C.3     1  UNL1        0.1179
      7 C          62.8274   82.8833   11.8606 C.3     1  UNL1        0.0321
      8 O          63.7634   83.4826   13.3451 O.3     1  UNL1       -0.3562
      9 C          63.7737   84.9801   13.4305 C.3     1  UNL1        0.1400
     10 C          64.1546   86.2758   14.0834 C.3     1  UNL1        0.0360
     11 C          64.0877   87.7738   14.0486 C.3     1  UNL1        0.0211
     12 C          64.5351   88.9919   14.8012 C.3     1  UNL1        0.0044
     13 C          64.8738   87.3456   15.2522 C.3     1  UNL1        0.0044
     14 C          63.5942   88.9988   13.3372 C.2     1  UNL1       -0.0234
     15 C          62.8309   89.5617   12.1752 C.2     1  UNL1        0.0371
     16 C          62.0400   89.2838   10.9313 C.2     1  UNL1        0.1911
     17 O          61.6432   90.6194   10.3756 O.2     1  UNL1       -0.2869
@<TRIPOS>BOND
     1     1     2    1
     2     2     3    2
     3     3     4    1
     4     4     5    1
     5     5     6    1
     6     6     7    1
     7     6     8    1
     8     8     9    1
     9     9    10    1
    10    10    11    1
    11    11    12    1
    12    11    13    1
    13    11    14    1
    14    14    15    2
    15    15    16    1
    16    16    17    2
    17    16     2    1
    18     9     6    1
