@<TRIPOS>MOLECULE
*****
 32 34 0 0 0
SMALL
GASTEIGER

@<TRIPOS>ATOM
      1 N          62.9814   90.4248   11.7695 N.am    1  UNL1       -0.2438
      2 C          63.4120   91.2210   10.5735 C.3     1  UNL1        0.1009
      3 C          64.5005   92.2446   10.7062 C.3     1  UNL1        0.0662
      4 C          65.1582   92.4720   12.0349 C.3     1  UNL1        0.1600
      5 O          64.7276   91.6758   13.2310 O.3     1  UNL1       -0.4374
      6 C          63.6391   90.6522   13.0983 C.2     1  UNL1        0.4051
      7 O          63.2085   89.8560   14.2944 O.2     1  UNL1       -0.2262
      8 C          65.9077   93.4673   11.1996 C.ar    1  UNL1        0.0140
      9 C          66.7046   93.0042   10.0161 C.ar    1  UNL1        0.0014
     10 C          67.4541   93.9994    9.1808 C.ar    1  UNL1        0.0294
     11 C          67.4067   95.4577    9.5289 C.ar    1  UNL1        0.1401
     12 F          68.1562   96.4529    8.6936 F       1  UNL1       -0.2042
     13 C          66.6098   95.9208   10.7124 C.ar    1  UNL1        0.0294
     14 C          65.8603   94.9255   11.5478 C.ar    1  UNL1        0.0014
     15 C          60.4931   89.7360   12.0587 C.3     1  UNL1        0.0265
     16 C          61.8930   89.4012   11.6368 C.3     1  UNL1        0.1011
     17 C          62.2046   88.0428   11.0820 C.ar    1  UNL1       -0.0040
     18 C          62.1405   87.8040    9.6026 C.ar    1  UNL1        0.0004
     19 C          62.4521   86.4457    9.0479 C.ar    1  UNL1        0.0368
     20 C          62.8277   85.3260    9.9728 C.ar    1  UNL1        0.1443
     21 C          62.8917   85.5647   11.4522 C.ar    1  UNL1        0.0368
     22 C          62.5801   86.9231   12.0069 C.ar    1  UNL1        0.0004
     23 O          63.1393   83.9676    9.4180 O.3     1  UNL1       -0.4236
     24 C          63.8554   82.9578   10.2650 C.3     1  UNL1        0.5087
     25 F          63.3502   81.5473   10.3389 F       1  UNL1       -0.1550
     26 F          65.0768   83.3584   11.0381 F       1  UNL1       -0.1550
     27 C          66.0763   93.0450   13.0736 C.3     1  UNL1        0.0714
     28 C          66.8317   92.1317   13.9929 C.3     1  UNL1        0.0922
     29 C          67.6801   91.6759   12.8428 C.3     1  UNL1        0.0294
     30 C          65.9834   92.5875   15.1429 C.3     1  UNL1        0.0294
     31 O          67.5873   91.2184   14.9121 O.3     1  UNL1       -0.3866
     32 H          68.2673   90.7436   14.4090 H       1  UNL1        0.2102
@<TRIPOS>BOND
     1    16    15    1
     2    16    17    1
     3    17    18   ar
     4    18    19   ar
     5    19    20   ar
     6    20    23    1
     7    23    24    1
     8    24    25    1
     9    24    26    1
    10    20    21   ar
    11    21    22   ar
    12    16     1    1
    13     1     2    1
    14     2     3    1
    15     3     4    1
    16     4    27    1
    17    27    28    1
    18    28    29    1
    19    28    30    1
    20    28    31    1
    21     4     8    1
    22     8     9   ar
    23     9    10   ar
    24    10    11   ar
    25    11    12    1
    26    11    13   ar
    27    13    14   ar
    28     4     5    1
    29     5     6    1
    30     6     7    2
    31    22    17   ar
    32     6     1   am
    33    14     8   ar
    34    31    32    1
@<TRIPOS>MOLECULE
*****
 32 34 0 0 0
SMALL
GASTEIGER

@<TRIPOS>ATOM
      1 N          63.2294   90.2795   11.9299 N.am    1  UNL1       -0.2438
      2 C          63.9548   90.0549   13.2234 C.3     1  UNL1        0.1009
      3 C          65.1246   90.9204   13.5874 C.3     1  UNL1        0.0662
      4 C          65.5690   92.0105   12.6578 C.3     1  UNL1        0.1600
      5 O          64.8436   92.2351   11.3642 O.3     1  UNL1       -0.4374
      6 C          63.6738   91.3696   11.0002 C.2     1  UNL1        0.4051
      7 O          62.9484   91.5942    9.7067 O.2     1  UNL1       -0.2262
      8 C          66.5694   92.1856   13.7617 C.ar    1  UNL1        0.0140
      9 C          66.1204   92.6572   15.1130 C.ar    1  UNL1        0.0014
     10 C          67.1208   92.8323   16.2169 C.ar    1  UNL1        0.0294
     11 C          68.5702   92.5358   15.9694 C.ar    1  UNL1        0.1401
     12 F          69.5706   92.7109   17.0733 F       1  UNL1       -0.2042
     13 C          69.0193   92.0642   14.6181 C.ar    1  UNL1        0.0294
     14 C          68.0189   91.8891   13.5142 C.ar    1  UNL1        0.0014
     15 C          60.6622   89.9338   11.7303 C.3     1  UNL1        0.0265
     16 C          62.0596   89.4140   11.5659 C.3     1  UNL1        0.1011
     17 C          62.2872   88.0287   11.0375 C.ar    1  UNL1       -0.0040
     18 C          62.2182   87.7681    9.5620 C.ar    1  UNL1        0.0004
     19 C          62.4458   86.3828    9.0336 C.ar    1  UNL1        0.0368
     20 C          62.7425   85.2582    9.9808 C.ar    1  UNL1        0.1443
     21 C          62.8116   85.5188   11.4564 C.ar    1  UNL1        0.0368
     22 C          62.5840   86.9041   11.9847 C.ar    1  UNL1        0.0004
     23 O          62.9702   83.8729    9.4524 O.3     1  UNL1       -0.4236
     24 C          63.7910   82.8952   10.2400 C.3     1  UNL1        0.5087
     25 F          65.0715   83.3381   10.8836 F       1  UNL1       -0.1550
     26 F          63.3314   81.4746   10.3840 F       1  UNL1       -0.1550
     27 C          66.3609   93.1614   12.1115 C.3     1  UNL1        0.0714
     28 C          66.3338   93.4600   10.6419 C.3     1  UNL1        0.0922
     29 C          67.1804   92.2496   10.3804 C.3     1  UNL1        0.0294
     30 C          65.4873   94.6703   10.9033 C.3     1  UNL1        0.0294
     31 O          66.3068   93.7585    9.1721 O.3     1  UNL1       -0.3866
     32 H          66.8171   93.0849    8.6960 H       1  UNL1        0.2102
@<TRIPOS>BOND
     1    16    15    1
     2    16    17    1
     3    17    18   ar
     4    18    19   ar
     5    19    20   ar
     6    20    23    1
     7    23    24    1
     8    24    25    1
     9    24    26    1
    10    20    21   ar
    11    21    22   ar
    12    16     1    1
    13     1     2    1
    14     2     3    1
    15     3     4    1
    16     4    27    1
    17    27    28    1
    18    28    29    1
    19    28    30    1
    20    28    31    1
    21     4     8    1
    22     8     9   ar
    23     9    10   ar
    24    10    11   ar
    25    11    12    1
    26    11    13   ar
    27    13    14   ar
    28     4     5    1
    29     5     6    1
    30     6     7    2
    31    22    17   ar
    32     6     1   am
    33    14     8   ar
    34    31    32    1
@<TRIPOS>MOLECULE
*****
 32 34 0 0 0
SMALL
GASTEIGER

@<TRIPOS>ATOM
      1 N          62.4852   90.3724   11.4509 N.am    1  UNL1       -0.2438
      2 C          62.8910   91.2845   10.3315 C.3     1  UNL1        0.1009
      3 C          64.1913   92.0287   10.4043 C.3     1  UNL1        0.0662
      4 C          65.0859   91.8607   11.5965 C.3     1  UNL1        0.1600
      5 O          64.6801   90.9485   12.7161 O.3     1  UNL1       -0.4374
      6 C          63.3797   90.2044   12.6433 C.2     1  UNL1        0.4051
      7 O          62.9739   89.2922   13.7628 O.2     1  UNL1       -0.2262
      8 C          65.9006   92.8317   10.7944 C.ar    1  UNL1        0.0140
      9 C          67.2305   92.4156   10.2391 C.ar    1  UNL1        0.0014
     10 C          68.0453   93.3866    9.4369 C.ar    1  UNL1        0.0294
     11 C          67.5301   94.7735    9.1901 C.ar    1  UNL1        0.1401
     12 F          68.3449   95.7445    8.3879 F       1  UNL1       -0.2042
     13 C          66.2002   95.1896    9.7453 C.ar    1  UNL1        0.0294
     14 C          65.3855   94.2186   10.5475 C.ar    1  UNL1        0.0014
     15 C          60.0833   89.9466   12.3452 C.3     1  UNL1        0.0265
     16 C          61.1849   89.6282   11.3781 C.3     1  UNL1        0.1011
     17 C          60.9861   88.5655   10.3382 C.ar    1  UNL1       -0.0040
     18 C          60.2741   88.8919    9.0589 C.ar    1  UNL1        0.0004
     19 C          60.0754   87.8293    8.0191 C.ar    1  UNL1        0.0368
     20 C          60.5886   86.4403    8.2585 C.ar    1  UNL1        0.1443
     21 C          61.3005   86.1139    9.5378 C.ar    1  UNL1        0.0368
     22 C          61.4993   87.1765   10.5776 C.ar    1  UNL1        0.0004
     23 O          60.3898   85.3777    7.2186 O.3     1  UNL1       -0.4236
     24 C          61.5779   84.7194    6.5823 C.3     1  UNL1        0.5087
     25 F          61.4029   83.8920    5.3434 F       1  UNL1       -0.1550
     26 F          62.9412   84.8886    7.1848 F       1  UNL1       -0.1550
     27 C          66.2634   92.0300   12.5103 C.3     1  UNL1        0.0714
     28 C          66.0681   92.5834   13.8907 C.3     1  UNL1        0.0922
     29 C          65.9136   91.1911   14.4270 C.3     1  UNL1        0.0294
     30 C          66.2226   93.9756   13.3543 C.3     1  UNL1        0.0294
     31 O          65.8729   93.1367   15.2711 O.3     1  UNL1       -0.3866
     32 H          65.7366   92.4071   15.8956 H       1  UNL1        0.2102
@<TRIPOS>BOND
     1    16    15    1
     2    16    17    1
     3    17    18   ar
     4    18    19   ar
     5    19    20   ar
     6    20    23    1
     7    23    24    1
     8    24    25    1
     9    24    26    1
    10    20    21   ar
    11    21    22   ar
    12    16     1    1
    13     1     2    1
    14     2     3    1
    15     3     4    1
    16     4    27    1
    17    27    28    1
    18    28    29    1
    19    28    30    1
    20    28    31    1
    21     4     8    1
    22     8     9   ar
    23     9    10   ar
    24    10    11   ar
    25    11    12    1
    26    11    13   ar
    27    13    14   ar
    28     4     5    1
    29     5     6    1
    30     6     7    2
    31    22    17   ar
    32     6     1   am
    33    14     8   ar
    34    31    32    1
@<TRIPOS>MOLECULE
*****
 32 34 0 0 0
SMALL
GASTEIGER

@<TRIPOS>ATOM
      1 N          62.7153   88.2006   12.2095 N.am    1  UNL1       -0.2438
      2 C          62.4349   87.1810   11.1457 C.3     1  UNL1        0.1009
      3 C          62.7805   85.7400   11.3782 C.3     1  UNL1        0.0662
      4 C          63.4067   85.3186   12.6744 C.3     1  UNL1        0.1600
      5 O          63.6872   86.3383   13.7383 O.3     1  UNL1       -0.4374
      6 C          63.3415   87.7793   13.5058 C.2     1  UNL1        0.4051
      7 O          63.6220   88.7989   14.5696 O.2     1  UNL1       -0.2262
      8 C          63.3350   83.9927   11.9766 C.ar    1  UNL1        0.0140
      9 C          62.5341   82.8736   12.5733 C.ar    1  UNL1        0.0014
     10 C          62.4625   81.5476   11.8755 C.ar    1  UNL1        0.0294
     11 C          63.1917   81.3410   10.5811 C.ar    1  UNL1        0.1401
     12 F          63.1200   80.0151    9.8833 F       1  UNL1       -0.2042
     13 C          63.9925   82.4602    9.9844 C.ar    1  UNL1        0.0294
     14 C          64.0642   83.7861   10.6822 C.ar    1  UNL1        0.0014
     15 C          60.9353   90.0543   11.8284 C.3     1  UNL1        0.0265
     16 C          62.3697   89.6416   11.9770 C.3     1  UNL1        0.1011
     17 C          63.4585   90.6700   11.8932 C.ar    1  UNL1       -0.0040
     18 C          64.2425   91.0339   13.1191 C.ar    1  UNL1        0.0004
     19 C          65.3313   92.0622   13.0352 C.ar    1  UNL1        0.0368
     20 C          65.6361   92.7266   11.7254 C.ar    1  UNL1        0.1443
     21 C          64.8521   92.3628   10.4994 C.ar    1  UNL1        0.0368
     22 C          63.7633   91.3344   10.5833 C.ar    1  UNL1        0.0004
     23 O          66.7249   93.7550   11.6415 O.3     1  UNL1       -0.4236
     24 C          66.6536   94.8403   10.6086 C.3     1  UNL1        0.5087
     25 F          67.8086   95.0683    9.6791 F       1  UNL1       -0.1550
     26 F          65.4272   95.6978   10.5051 F       1  UNL1       -0.1550
     27 C          64.0080   84.4368   13.7284 C.3     1  UNL1        0.0714
     28 C          64.1724   84.9473   15.1292 C.3     1  UNL1        0.0922
     29 C          65.5939   85.3187   14.8270 C.3     1  UNL1        0.0294
     30 C          62.7509   84.5759   15.4314 C.3     1  UNL1        0.0294
     31 O          64.3369   85.4578   16.5300 O.3     1  UNL1       -0.3866
     32 H          65.2390   85.7943   16.6476 H       1  UNL1        0.2102
@<TRIPOS>BOND
     1    16    15    1
     2    16    17    1
     3    17    18   ar
     4    18    19   ar
     5    19    20   ar
     6    20    23    1
     7    23    24    1
     8    24    25    1
     9    24    26    1
    10    20    21   ar
    11    21    22   ar
    12    16     1    1
    13     1     2    1
    14     2     3    1
    15     3     4    1
    16     4    27    1
    17    27    28    1
    18    28    29    1
    19    28    30    1
    20    28    31    1
    21     4     8    1
    22     8     9   ar
    23     9    10   ar
    24    10    11   ar
    25    11    12    1
    26    11    13   ar
    27    13    14   ar
    28     4     5    1
    29     5     6    1
    30     6     7    2
    31    22    17   ar
    32     6     1   am
    33    14     8   ar
    34    31    32    1
@<TRIPOS>MOLECULE
*****
 32 34 0 0 0
SMALL
GASTEIGER

@<TRIPOS>ATOM
      1 N          62.8592   90.6614   11.8332 N.am    1  UNL1       -0.2438
      2 C          63.4160   90.5676   13.2229 C.3     1  UNL1        0.1009
      3 C          64.7544   91.1676   13.5368 C.3     1  UNL1        0.0662
      4 C          65.5361   91.8615   12.4610 C.3     1  UNL1        0.1600
      5 O          64.9794   91.9554   11.0712 O.3     1  UNL1       -0.4374
      6 C          63.6410   91.3553   10.7574 C.2     1  UNL1        0.4051
      7 O          63.0843   91.4492    9.3677 O.2     1  UNL1       -0.2262
      8 C          66.4779   92.0288   13.6165 C.ar    1  UNL1        0.0140
      9 C          67.9478   91.7988   13.4253 C.ar    1  UNL1        0.0014
     10 C          68.8896   91.9661   14.5807 C.ar    1  UNL1        0.0294
     11 C          68.3615   92.3635   15.9273 C.ar    1  UNL1        0.1401
     12 F          69.3033   92.5308   17.0827 F       1  UNL1       -0.2042
     13 C          66.8916   92.5935   16.1184 C.ar    1  UNL1        0.0294
     14 C          65.9498   92.4262   14.9630 C.ar    1  UNL1        0.0014
     15 C          60.2890   90.5768   12.2026 C.3     1  UNL1        0.0265
     16 C          61.5208   90.0614   11.5194 C.3     1  UNL1        0.1011
     17 C          61.4142   88.9458   10.5222 C.ar    1  UNL1       -0.0040
     18 C          62.2650   87.7199   10.6745 C.ar    1  UNL1        0.0004
     19 C          62.1584   86.6044    9.6774 C.ar    1  UNL1        0.0368
     20 C          61.2011   86.7149    8.5279 C.ar    1  UNL1        0.1443
     21 C          60.3503   87.9408    8.3755 C.ar    1  UNL1        0.0368
     22 C          60.4569   89.0563    9.3727 C.ar    1  UNL1        0.0004
     23 O          61.0945   85.5993    7.5307 O.3     1  UNL1       -0.4236
     24 C          62.3239   84.8508    7.1085 C.3     1  UNL1        0.5087
     25 F          63.3177   84.3996    8.1376 F       1  UNL1       -0.1550
     26 F          62.5596   84.5534    5.6573 F       1  UNL1       -0.1550
     27 C          66.6450   92.6136   11.7864 C.3     1  UNL1        0.0714
     28 C          66.3633   93.4173   10.5517 C.3     1  UNL1        0.0922
     29 C          67.1396   92.4298    9.7318 C.3     1  UNL1        0.0294
     30 C          65.5871   94.4048   11.3716 C.3     1  UNL1        0.0294
     31 O          66.0817   94.2210    9.3170 O.3     1  UNL1       -0.3866
     32 H          66.4943   93.7922    8.5510 H       1  UNL1        0.2102
@<TRIPOS>BOND
     1    16    15    1
     2    16    17    1
     3    17    18   ar
     4    18    19   ar
     5    19    20   ar
     6    20    23    1
     7    23    24    1
     8    24    25    1
     9    24    26    1
    10    20    21   ar
    11    21    22   ar
    12    16     1    1
    13     1     2    1
    14     2     3    1
    15     3     4    1
    16     4    27    1
    17    27    28    1
    18    28    29    1
    19    28    30    1
    20    28    31    1
    21     4     8    1
    22     8     9   ar
    23     9    10   ar
    24    10    11   ar
    25    11    12    1
    26    11    13   ar
    27    13    14   ar
    28     4     5    1
    29     5     6    1
    30     6     7    2
    31    22    17   ar
    32     6     1   am
    33    14     8   ar
    34    31    32    1
@<TRIPOS>MOLECULE
*****
 32 34 0 0 0
SMALL
GASTEIGER

@<TRIPOS>ATOM
      1 N          63.5885   89.0455   13.1805 N.am    1  UNL1       -0.2438
      2 C          64.0711   87.7419   13.7439 C.3     1  UNL1        0.1009
      3 C          63.5887   86.4476   13.1591 C.3     1  UNL1        0.0662
      4 C          62.6238   86.4569   12.0108 C.3     1  UNL1        0.1600
      5 O          62.1411   87.7606   11.4472 O.3     1  UNL1       -0.4374
      6 C          62.6235   89.0549   12.0321 C.2     1  UNL1        0.4051
      7 O          62.1409   90.3586   11.4686 O.2     1  UNL1       -0.2262
      8 C          62.7915   84.9781   12.1980 C.ar    1  UNL1        0.0140
      9 C          63.2078   84.1181   11.0417 C.ar    1  UNL1        0.0014
     10 C          63.3755   82.6393   11.2290 C.ar    1  UNL1        0.0294
     11 C          63.1269   82.0206   12.5726 C.ar    1  UNL1        0.1401
     12 F          63.2946   80.5417   12.7599 F       1  UNL1       -0.2042
     13 C          62.7106   82.8805   13.7289 C.ar    1  UNL1        0.0294
     14 C          62.5429   84.3593   13.5417 C.ar    1  UNL1        0.0014
     15 C          63.6586   90.7361   15.1520 C.3     1  UNL1        0.0265
     16 C          64.0709   90.3399   13.7653 C.3     1  UNL1        0.1011
     17 C          64.9656   91.2379   12.9634 C.ar    1  UNL1       -0.0040
     18 C          66.3133   91.6241   13.4967 C.ar    1  UNL1        0.0004
     19 C          67.2080   92.5222   12.6948 C.ar    1  UNL1        0.0368
     20 C          66.7549   93.0340   11.3596 C.ar    1  UNL1        0.1443
     21 C          65.4072   92.6478   10.8263 C.ar    1  UNL1        0.0368
     22 C          64.5125   91.7498   11.6282 C.ar    1  UNL1        0.0004
     23 O          67.6496   93.9321   10.5577 O.3     1  UNL1       -0.4236
     24 C          68.1934   93.4662    9.2397 C.3     1  UNL1        0.5087
     25 F          67.7368   94.1170    7.9676 F       1  UNL1       -0.1550
     26 F          69.1937   92.3494    9.1936 F       1  UNL1       -0.1550
     27 C          61.7170   85.9526   10.9274 C.3     1  UNL1        0.0714
     28 C          61.2557   86.8807    9.8431 C.3     1  UNL1        0.0922
     29 C          62.4398   86.4934    9.0077 C.3     1  UNL1        0.0294
     30 C          60.0716   87.2681   10.6785 C.3     1  UNL1        0.0294
     31 O          60.7944   87.8088    8.7588 O.3     1  UNL1       -0.3866
     32 H          61.4169   87.7726    8.0157 H       1  UNL1        0.2102
@<TRIPOS>BOND
     1    16    15    1
     2    16    17    1
     3    17    18   ar
     4    18    19   ar
     5    19    20   ar
     6    20    23    1
     7    23    24    1
     8    24    25    1
     9    24    26    1
    10    20    21   ar
    11    21    22   ar
    12    16     1    1
    13     1     2    1
    14     2     3    1
    15     3     4    1
    16     4    27    1
    17    27    28    1
    18    28    29    1
    19    28    30    1
    20    28    31    1
    21     4     8    1
    22     8     9   ar
    23     9    10   ar
    24    10    11   ar
    25    11    12    1
    26    11    13   ar
    27    13    14   ar
    28     4     5    1
    29     5     6    1
    30     6     7    2
    31    22    17   ar
    32     6     1   am
    33    14     8   ar
    34    31    32    1
@<TRIPOS>MOLECULE
*****
 32 34 0 0 0
SMALL
GASTEIGER

@<TRIPOS>ATOM
      1 N          63.5474   88.4892   13.3094 N.am    1  UNL1       -0.2438
      2 C          63.0386   88.7410   11.9210 C.3     1  UNL1        0.1009
      3 C          62.6508   87.5877   11.0437 C.3     1  UNL1        0.0662
      4 C          62.7718   86.1827   11.5548 C.3     1  UNL1        0.1600
      5 O          63.2806   85.9309   12.9433 O.3     1  UNL1       -0.4374
      6 C          63.6684   87.0842   13.8206 C.2     1  UNL1        0.4051
      7 O          64.1772   86.8324   15.2090 O.2     1  UNL1       -0.2262
      8 C          62.2410   85.9141   10.1778 C.ar    1  UNL1        0.0140
      9 C          60.8670   86.3820    9.7992 C.ar    1  UNL1        0.0014
     10 C          60.3362   86.1134    8.4222 C.ar    1  UNL1        0.0294
     11 C          61.1794   85.3770    7.4239 C.ar    1  UNL1        0.1401
     12 F          60.6486   85.1084    6.0468 F       1  UNL1       -0.2042
     13 C          62.5534   84.9092    7.8024 C.ar    1  UNL1        0.0294
     14 C          63.0842   85.1778    9.1795 C.ar    1  UNL1        0.0014
     15 C          63.5822   89.6278   15.6444 C.3     1  UNL1        0.0265
     16 C          63.9352   89.6425   14.1867 C.3     1  UNL1        0.1011
     17 C          64.6761   90.8105   13.6061 C.ar    1  UNL1       -0.0040
     18 C          64.2612   91.3783   12.2812 C.ar    1  UNL1        0.0004
     19 C          65.0021   92.5462   11.7008 C.ar    1  UNL1        0.0368
     20 C          66.1578   93.1463   12.4452 C.ar    1  UNL1        0.1443
     21 C          66.5727   92.5785   13.7701 C.ar    1  UNL1        0.0368
     22 C          65.8318   91.4106   14.3506 C.ar    1  UNL1        0.0004
     23 O          66.8987   94.3143   11.8646 O.3     1  UNL1       -0.4236
     24 C          66.1416   95.5061   11.3583 C.3     1  UNL1        0.5087
     25 F          65.4200   95.4338   10.0452 F       1  UNL1       -0.1550
     26 F          66.1060   96.7702   12.1649 F       1  UNL1       -0.1550
     27 C          62.7085   84.6844   11.5877 C.3     1  UNL1        0.0714
     28 C          63.4125   83.9277   12.6747 C.3     1  UNL1        0.0922
     29 C          64.6126   83.7711   11.7884 C.3     1  UNL1        0.0294
     30 C          62.2126   84.0842   13.5610 C.3     1  UNL1        0.0294
     31 O          64.1167   83.1709   13.7616 O.3     1  UNL1       -0.3866
     32 H          65.0001   82.9123   13.4555 H       1  UNL1        0.2102
@<TRIPOS>BOND
     1    16    15    1
     2    16    17    1
     3    17    18   ar
     4    18    19   ar
     5    19    20   ar
     6    20    23    1
     7    23    24    1
     8    24    25    1
     9    24    26    1
    10    20    21   ar
    11    21    22   ar
    12    16     1    1
    13     1     2    1
    14     2     3    1
    15     3     4    1
    16     4    27    1
    17    27    28    1
    18    28    29    1
    19    28    30    1
    20    28    31    1
    21     4     8    1
    22     8     9   ar
    23     9    10   ar
    24    10    11   ar
    25    11    12    1
    26    11    13   ar
    27    13    14   ar
    28     4     5    1
    29     5     6    1
    30     6     7    2
    31    22    17   ar
    32     6     1   am
    33    14     8   ar
    34    31    32    1
@<TRIPOS>MOLECULE
*****
 32 34 0 0 0
SMALL
GASTEIGER

@<TRIPOS>ATOM
      1 N          61.8899   89.5373   11.3266 N.am    1  UNL1       -0.2438
      2 C          62.6319   90.8372   11.4255 C.3     1  UNL1        0.1009
      3 C          63.6977   91.0152   12.4658 C.3     1  UNL1        0.0662
      4 C          64.0215   89.8934   13.4074 C.3     1  UNL1        0.1600
      5 O          63.2796   88.5934   13.3086 O.3     1  UNL1       -0.4374
      6 C          62.2138   88.4154   12.2682 C.2     1  UNL1        0.4051
      7 O          61.4718   87.1155   12.1694 O.2     1  UNL1       -0.2262
      8 C          64.9932   90.9285   13.8916 C.ar    1  UNL1        0.0140
      9 C          64.9534   91.3844   15.3201 C.ar    1  UNL1        0.0014
     10 C          65.9251   92.4195   15.8044 C.ar    1  UNL1        0.0294
     11 C          66.9363   92.9988   14.8600 C.ar    1  UNL1        0.1401
     12 F          67.9080   94.0339   15.3443 F       1  UNL1       -0.2042
     13 C          66.9761   92.5430   13.4315 C.ar    1  UNL1        0.0294
     14 C          66.0044   91.5078   12.9473 C.ar    1  UNL1        0.0014
     15 C          59.7520   90.3959   10.1259 C.3     1  UNL1        0.0265
     16 C          60.8241   89.3592   10.2863 C.3     1  UNL1        0.1011
     17 C          60.8306   88.1445    9.4062 C.ar    1  UNL1       -0.0040
     18 C          59.5985   87.7685    8.6378 C.ar    1  UNL1        0.0004
     19 C          59.6050   86.5538    7.7578 C.ar    1  UNL1        0.0368
     20 C          60.8435   85.7151    7.6463 C.ar    1  UNL1        0.1443
     21 C          62.0756   86.0910    8.4147 C.ar    1  UNL1        0.0368
     22 C          62.0692   87.3057    9.2947 C.ar    1  UNL1        0.0004
     23 O          60.8500   84.5003    6.7662 O.3     1  UNL1       -0.4236
     24 C          61.8547   84.3818    5.6588 C.3     1  UNL1        0.5087
     25 F          61.3937   84.1642    4.2480 F       1  UNL1       -0.1550
     26 F          63.3204   84.4808    5.9621 F       1  UNL1       -0.1550
     27 C          64.6828   89.1310   14.5172 C.3     1  UNL1        0.0714
     28 C          63.8868   88.1609   15.3388 C.3     1  UNL1        0.0922
     29 C          64.5825   87.0170   14.6622 C.3     1  UNL1        0.0294
     30 C          63.1912   89.3047   16.0153 C.3     1  UNL1        0.0294
     31 O          63.0908   87.1907   16.1604 O.3     1  UNL1       -0.3866
     32 H          63.3434   86.2842   15.9250 H       1  UNL1        0.2102
@<TRIPOS>BOND
     1    16    15    1
     2    16    17    1
     3    17    18   ar
     4    18    19   ar
     5    19    20   ar
     6    20    23    1
     7    23    24    1
     8    24    25    1
     9    24    26    1
    10    20    21   ar
    11    21    22   ar
    12    16     1    1
    13     1     2    1
    14     2     3    1
    15     3     4    1
    16     4    27    1
    17    27    28    1
    18    28    29    1
    19    28    30    1
    20    28    31    1
    21     4     8    1
    22     8     9   ar
    23     9    10   ar
    24    10    11   ar
    25    11    12    1
    26    11    13   ar
    27    13    14   ar
    28     4     5    1
    29     5     6    1
    30     6     7    2
    31    22    17   ar
    32     6     1   am
    33    14     8   ar
    34    31    32    1
