@<TRIPOS>MOLECULE
*****
 26 28 0 0 0
SMALL
GASTEIGER

@<TRIPOS>ATOM
      1 N          63.9517   88.9496   14.9673 N.am    1  UNL1       -0.3003
      2 C          63.9730   87.6600   14.2014 C.2     1  UNL1        0.2252
      3 O          63.4104   87.6034   12.8122 O.2     1  UNL1       -0.2750
      4 H          64.3210   88.9867   15.8792 H       1  UNL1        0.1497
      5 C          63.3678   90.1826   14.3438 C.3     1  UNL1        0.1193
      6 C          65.4236   91.6817   13.8186 C.ar    1  UNL1        0.1361
      7 C          66.2316   92.4823   12.8406 C.ar    1  UNL1        0.0366
      8 C          65.7918   92.5843   11.4103 C.ar    1  UNL1        0.0031
      9 C          64.5439   91.8858   10.9577 C.ar    1  UNL1       -0.0001
     10 C          63.7359   91.0852   11.9355 C.ar    1  UNL1        0.0004
     11 C          64.1758   90.9831   13.3660 C.ar    1  UNL1        0.0314
     12 O          65.8635   91.5797   15.2489 O.3     1  UNL1       -0.4757
     13 C          68.2022   92.3798   16.0493 C.3     1  UNL1        0.0512
     14 C          66.7401   92.6429   15.8417 C.3     1  UNL1        0.2055
     15 C          64.5570   86.4269   14.8249 C.3     1  UNL1        0.1154
     16 C          63.6672   85.2729   15.1803 C.3     1  UNL1        0.1377
     17 C          63.5058   86.0016   16.4814 C.3     1  UNL1        0.0335
     18 C          64.0147   84.7854   13.8049 C.3     1  UNL1        0.0613
     19 C          63.3058   83.4823   13.5821 C.3     1  UNL1        0.1290
     20 C          62.5386   82.1958   13.5042 C.3     1  UNL1        0.0305
     21 C          62.6038   81.3577   12.2618 C.3     1  UNL1        0.0025
     22 C          63.4363   81.8063   11.0974 C.3     1  UNL1        0.0002
     23 C          64.2035   83.0928   11.1753 C.3     1  UNL1        0.0025
     24 C          64.1382   83.9309   12.4177 C.3     1  UNL1        0.0305
     25 O          62.5203   83.1644   14.8198 O.3     1  UNL1       -0.2256
     26 O          62.7436   84.2711   15.8076 O.3     1  UNL1       -0.2251
@<TRIPOS>BOND
     1    13    14    1
     2    14    12    1
     3    12     6    1
     4     6     7   ar
     5     7     8   ar
     6     8     9   ar
     7     9    10   ar
     8    10    11   ar
     9    11     5    1
    10     5     1    1
    11     1     2   am
    12     2     3    2
    13     2    15    1
    14    15    16    1
    15    16    17    1
    16    16    18    1
    17    18    19    1
    18    19    20    1
    19    20    21    1
    20    21    22    1
    21    22    23    1
    22    23    24    1
    23    19    25    1
    24    25    26    1
    25    11     6   ar
    26    26    16    1
    27    24    19    1
    28     1     4    1
@<TRIPOS>MOLECULE
*****
 26 28 0 0 0
SMALL
GASTEIGER

@<TRIPOS>ATOM
      1 N          62.3682   85.7564   11.8182 N.am    1  UNL1       -0.3003
      2 C          62.0128   86.6841   10.6943 C.2     1  UNL1        0.2252
      3 O          62.4341   86.3592    9.2919 O.2     1  UNL1       -0.2750
      4 H          62.0917   85.9696   12.7387 H       1  UNL1        0.1497
      5 C          63.1450   84.5038   11.5396 C.3     1  UNL1        0.1193
      6 C          62.4797   83.3305   13.7600 C.ar    1  UNL1        0.1361
      7 C          62.1826   82.0770   14.5285 C.ar    1  UNL1        0.0366
      8 C          62.2536   80.7436   13.8452 C.ar    1  UNL1        0.0031
      9 C          62.6218   80.6636   12.3933 C.ar    1  UNL1       -0.0001
     10 C          62.9190   81.9170   11.6248 C.ar    1  UNL1        0.0004
     11 C          62.8479   83.2504   12.3081 C.ar    1  UNL1        0.0314
     12 O          62.4087   84.6638   14.4433 O.3     1  UNL1       -0.4757
     13 C          64.6135   85.9453   14.9400 C.3     1  UNL1        0.0512
     14 C          63.4855   85.0724   15.4044 C.3     1  UNL1        0.2055
     15 C          61.2359   87.9367   10.9730 C.3     1  UNL1        0.1154
     16 C          61.8173   89.2737   10.6205 C.3     1  UNL1        0.1377
     17 C          60.9231   89.1703    9.4206 C.3     1  UNL1        0.0335
     18 C          62.5899   89.0976   11.8940 C.3     1  UNL1        0.0613
     19 C          63.4619   90.3043   12.0779 C.3     1  UNL1        0.1290
     20 C          64.2738   91.5646   12.1269 C.3     1  UNL1        0.0305
     21 C          65.2143   91.8068   13.2700 C.3     1  UNL1        0.0025
     22 C          65.3430   90.7887   14.3640 C.3     1  UNL1        0.0002
     23 C          64.5311   89.5284   14.3150 C.3     1  UNL1        0.0025
     24 C          63.5906   89.2862   13.1719 C.3     1  UNL1        0.0305
     25 O          63.2282   91.2261   10.9179 O.3     1  UNL1       -0.2256
     26 O          62.2117   90.5892   10.0171 O.3     1  UNL1       -0.2251
@<TRIPOS>BOND
     1    13    14    1
     2    14    12    1
     3    12     6    1
     4     6     7   ar
     5     7     8   ar
     6     8     9   ar
     7     9    10   ar
     8    10    11   ar
     9    11     5    1
    10     5     1    1
    11     1     2   am
    12     2     3    2
    13     2    15    1
    14    15    16    1
    15    16    17    1
    16    16    18    1
    17    18    19    1
    18    19    20    1
    19    20    21    1
    20    21    22    1
    21    22    23    1
    22    23    24    1
    23    19    25    1
    24    25    26    1
    25    11     6   ar
    26    26    16    1
    27    24    19    1
    28     1     4    1
@<TRIPOS>MOLECULE
*****
 26 28 0 0 0
SMALL
GASTEIGER

@<TRIPOS>ATOM
      1 N          62.2656   89.3422   11.5825 N.am    1  UNL1       -0.3003
      2 C          60.8602   88.9689   11.2139 C.2     1  UNL1        0.2252
      3 O          59.7981   90.0254   11.1414 O.2     1  UNL1       -0.2750
      4 H          62.9628   88.6488   11.6301 H       1  UNL1        0.1497
      5 C          62.6086   90.7722   11.8784 C.3     1  UNL1        0.1193
      6 C          64.1785   90.5846   13.9400 C.ar    1  UNL1        0.1361
      7 C          65.4712   90.9199   14.6232 C.ar    1  UNL1        0.0366
      8 C          66.4863   91.7780   13.9281 C.ar    1  UNL1        0.0031
      9 C          66.2089   92.3008   12.5498 C.ar    1  UNL1       -0.0001
     10 C          64.9164   91.9655   11.8666 C.ar    1  UNL1        0.0004
     11 C          63.9012   91.1074   12.5617 C.ar    1  UNL1        0.0314
     12 O          63.1634   89.7266   14.6350 O.3     1  UNL1       -0.4757
     13 C          63.1107   88.3332   16.8272 C.3     1  UNL1        0.0512
     14 C          63.1350   89.6629   16.1334 C.3     1  UNL1        0.2055
     15 C          60.5172   87.5389   10.9180 C.3     1  UNL1        0.1154
     16 C          61.2683   86.7918    9.8561 C.3     1  UNL1        0.1377
     17 C          60.5785   87.7411    8.9217 C.3     1  UNL1        0.0335
     18 C          61.8011   85.9987   11.0125 C.3     1  UNL1        0.0613
     19 C          62.7373   84.9599   10.4699 C.3     1  UNL1        0.1290
     20 C          63.6416   83.9786    9.7848 C.3     1  UNL1        0.0305
     21 C          64.3990   82.9665   10.5922 C.3     1  UNL1        0.0025
     22 C          64.2521   82.9355   12.0847 C.3     1  UNL1        0.0002
     23 C          63.3478   83.9168   12.7698 C.3     1  UNL1        0.0025
     24 C          62.5904   84.9289   11.9624 C.3     1  UNL1        0.0305
     25 O          62.7832   85.1109    8.9782 O.3     1  UNL1       -0.2256
     26 O          61.8752   86.2432    8.5988 O.3     1  UNL1       -0.2251
@<TRIPOS>BOND
     1    13    14    1
     2    14    12    1
     3    12     6    1
     4     6     7   ar
     5     7     8   ar
     6     8     9   ar
     7     9    10   ar
     8    10    11   ar
     9    11     5    1
    10     5     1    1
    11     1     2   am
    12     2     3    2
    13     2    15    1
    14    15    16    1
    15    16    17    1
    16    16    18    1
    17    18    19    1
    18    19    20    1
    19    20    21    1
    20    21    22    1
    21    22    23    1
    22    23    24    1
    23    19    25    1
    24    25    26    1
    25    11     6   ar
    26    26    16    1
    27    24    19    1
    28     1     4    1
@<TRIPOS>MOLECULE
*****
 26 28 0 0 0
SMALL
GASTEIGER

@<TRIPOS>ATOM
      1 N          64.2132   88.0697   14.0760 N.am    1  UNL1       -0.3003
      2 C          63.9595   87.2970   15.3364 C.2     1  UNL1        0.2252
      3 O          63.2855   87.9610   16.5003 O.2     1  UNL1       -0.2750
      4 H          64.6556   87.6338   13.3120 H       1  UNL1        0.1497
      5 C          63.7929   89.5063   13.9795 C.3     1  UNL1        0.1193
      6 C          62.7714   89.5186   11.5907 C.ar    1  UNL1        0.1361
      7 C          62.6185   90.1667   10.2466 C.ar    1  UNL1        0.0366
      8 C          63.3341   91.4505    9.9472 C.ar    1  UNL1        0.0031
      9 C          64.2026   92.0863   10.9919 C.ar    1  UNL1       -0.0001
     10 C          64.3555   91.4382   12.3360 C.ar    1  UNL1        0.0004
     11 C          63.6400   90.1544   12.6354 C.ar    1  UNL1        0.0314
     12 O          62.0559   88.2348   11.8901 O.3     1  UNL1       -0.4757
     13 C          61.6278   85.7953   11.1052 C.3     1  UNL1        0.0512
     14 C          61.7839   87.2532   10.7888 C.3     1  UNL1        0.2055
     15 C          64.3798   85.8603   15.4329 C.3     1  UNL1        0.1154
     16 C          63.3471   84.7730   15.4000 C.3     1  UNL1        0.1377
     17 C          62.9669   85.3095   16.7482 C.3     1  UNL1        0.0335
     18 C          63.9431   84.4638   14.0587 C.3     1  UNL1        0.0613
     19 C          63.1993   83.2974   13.4786 C.3     1  UNL1        0.1290
     20 C          62.3688   82.1319   13.0295 C.3     1  UNL1        0.0305
     21 C          62.6341   81.4900   11.7001 C.3     1  UNL1        0.0025
     22 C          63.7300   82.0135   10.8198 C.3     1  UNL1        0.0002
     23 C          64.5605   83.1790   11.2689 C.3     1  UNL1        0.0025
     24 C          64.2952   83.8210   12.5983 C.3     1  UNL1        0.0305
     25 O          62.1435   82.8858   14.4615 O.3     1  UNL1       -0.2256
     26 O          62.2348   83.7978   15.6490 O.3     1  UNL1       -0.2251
@<TRIPOS>BOND
     1    13    14    1
     2    14    12    1
     3    12     6    1
     4     6     7   ar
     5     7     8   ar
     6     8     9   ar
     7     9    10   ar
     8    10    11   ar
     9    11     5    1
    10     5     1    1
    11     1     2   am
    12     2     3    2
    13     2    15    1
    14    15    16    1
    15    16    17    1
    16    16    18    1
    17    18    19    1
    18    19    20    1
    19    20    21    1
    20    21    22    1
    21    22    23    1
    22    23    24    1
    23    19    25    1
    24    25    26    1
    25    11     6   ar
    26    26    16    1
    27    24    19    1
    28     1     4    1
@<TRIPOS>MOLECULE
*****
 26 28 0 0 0
SMALL
GASTEIGER

@<TRIPOS>ATOM
      1 N          62.6742   85.8961   12.1733 N.am    1  UNL1       -0.3003
      2 C          63.5698   84.9036   12.8538 C.2     1  UNL1        0.2252
      3 O          63.7128   83.5179   12.2979 O.2     1  UNL1       -0.2750
      4 H          62.5803   86.8056   12.5382 H       1  UNL1        0.1497
      5 C          61.9216   85.5026   10.9368 C.3     1  UNL1        0.1193
      6 C          61.3129   87.9928   10.5148 C.ar    1  UNL1        0.1361
      7 C          60.6419   89.0425    9.6791 C.ar    1  UNL1        0.0366
      8 C          59.9090   88.6516    8.4303 C.ar    1  UNL1        0.0031
      9 C          59.8469   87.2110    8.0168 C.ar    1  UNL1       -0.0001
     10 C          60.5178   86.1614    8.8523 C.ar    1  UNL1        0.0004
     11 C          61.2508   86.5523   10.1013 C.ar    1  UNL1        0.0314
     12 O          62.0458   88.3837   11.7637 O.3     1  UNL1       -0.4757
     13 C          63.1483   90.7122   11.4272 C.3     1  UNL1        0.0512
     14 C          62.1666   89.8306   12.1407 C.3     1  UNL1        0.2055
     15 C          64.3224   85.2971   14.0904 C.3     1  UNL1        0.1154
     16 C          63.5904   85.8937   15.2557 C.3     1  UNL1        0.1377
     17 C          63.1564   84.4797   15.5053 C.3     1  UNL1        0.0335
     18 C          64.1774   87.1830   14.7626 C.3     1  UNL1        0.0613
     19 C          63.7175   88.2809   15.6754 C.3     1  UNL1        0.1290
     20 C          63.1800   89.2683   16.6684 C.3     1  UNL1        0.0305
     21 C          63.5299   90.7217   16.5454 C.3     1  UNL1        0.0025
     22 C          64.4174   91.1877   15.4295 C.3     1  UNL1        0.0002
     23 C          64.9549   90.2003   14.4365 C.3     1  UNL1        0.0025
     24 C          64.6050   88.7469   14.5595 C.3     1  UNL1        0.0305
     25 O          62.8463   87.6701   16.7327 O.3     1  UNL1       -0.2256
     26 O          62.7677   86.1947   16.4734 O.3     1  UNL1       -0.2251
@<TRIPOS>BOND
     1    13    14    1
     2    14    12    1
     3    12     6    1
     4     6     7   ar
     5     7     8   ar
     6     8     9   ar
     7     9    10   ar
     8    10    11   ar
     9    11     5    1
    10     5     1    1
    11     1     2   am
    12     2     3    2
    13     2    15    1
    14    15    16    1
    15    16    17    1
    16    16    18    1
    17    18    19    1
    18    19    20    1
    19    20    21    1
    20    21    22    1
    21    22    23    1
    22    23    24    1
    23    19    25    1
    24    25    26    1
    25    11     6   ar
    26    26    16    1
    27    24    19    1
    28     1     4    1
@<TRIPOS>MOLECULE
*****
 26 28 0 0 0
SMALL
GASTEIGER

@<TRIPOS>ATOM
      1 N          63.5757   87.6145   13.0536 N.am    1  UNL1       -0.3003
      2 C          64.2902   87.6412   14.3723 C.2     1  UNL1        0.2252
      3 O          64.6443   88.9533   15.0070 O.2     1  UNL1       -0.2750
      4 H          63.3433   86.7533   12.6370 H       1  UNL1        0.1497
      5 C          63.2154   88.9000   12.3697 C.3     1  UNL1        0.1193
      6 C          61.7851   87.6721   10.5819 C.ar    1  UNL1        0.1361
      7 C          60.6956   87.6935    9.5510 C.ar    1  UNL1        0.0366
      8 C          59.9470   88.9640    9.2773 C.ar    1  UNL1        0.0031
      9 C          60.2877   90.2133   10.0343 C.ar    1  UNL1       -0.0001
     10 C          61.3772   90.1920   11.0651 C.ar    1  UNL1        0.0004
     11 C          62.1259   88.9213   11.3389 C.ar    1  UNL1        0.0314
     12 O          62.5338   86.4015   10.8556 O.3     1  UNL1       -0.4757
     13 C          63.0621   85.4842    8.4828 C.3     1  UNL1        0.0512
     14 C          62.4998   85.2812    9.8586 C.3     1  UNL1        0.2055
     15 C          64.6506   86.3557   15.0562 C.3     1  UNL1        0.1154
     16 C          63.5883   85.3374   15.3467 C.3     1  UNL1        0.1377
     17 C          63.3549   86.1628   16.5773 C.3     1  UNL1        0.0335
     18 C          64.0437   84.7249   14.0554 C.3     1  UNL1        0.0613
     19 C          63.2140   83.5005   13.8051 C.3     1  UNL1        0.1290
     20 C          62.3107   82.3086   13.6895 C.3     1  UNL1        0.0305
     21 C          62.4286   81.3898   12.5098 C.3     1  UNL1        0.0025
     22 C          63.4498   81.6629   11.4456 C.3     1  UNL1        0.0002
     23 C          64.3531   82.8548   11.5611 C.3     1  UNL1        0.0025
     24 C          64.2352   83.7736   12.7408 C.3     1  UNL1        0.0305
     25 O          62.2458   83.3563   14.9416 O.3     1  UNL1       -0.2256
     26 O          62.4771   84.4916   15.8945 O.3     1  UNL1       -0.2251
@<TRIPOS>BOND
     1    13    14    1
     2    14    12    1
     3    12     6    1
     4     6     7   ar
     5     7     8   ar
     6     8     9   ar
     7     9    10   ar
     8    10    11   ar
     9    11     5    1
    10     5     1    1
    11     1     2   am
    12     2     3    2
    13     2    15    1
    14    15    16    1
    15    16    17    1
    16    16    18    1
    17    18    19    1
    18    19    20    1
    19    20    21    1
    20    21    22    1
    21    22    23    1
    22    23    24    1
    23    19    25    1
    24    25    26    1
    25    11     6   ar
    26    26    16    1
    27    24    19    1
    28     1     4    1
@<TRIPOS>MOLECULE
*****
 26 28 0 0 0
SMALL
GASTEIGER

@<TRIPOS>ATOM
      1 N          62.3235   89.4361   10.6839 N.am    1  UNL1       -0.3003
      2 C          60.9173   89.0733   11.0596 C.2     1  UNL1        0.2252
      3 O          60.0591   90.0598   11.7944 O.2     1  UNL1       -0.2750
      4 H          62.8868   88.7885   10.2016 H       1  UNL1        0.1497
      5 C          62.8713   90.7854   11.0432 C.3     1  UNL1        0.1193
      6 C          64.9258   91.9312   12.1460 C.ar    1  UNL1        0.1361
      7 C          65.8660   92.0744   13.3060 C.ar    1  UNL1        0.0366
      8 C          65.6919   91.2151   14.5230 C.ar    1  UNL1        0.0031
      9 C          64.5776   90.2125   14.5801 C.ar    1  UNL1       -0.0001
     10 C          63.6375   90.0693   13.4202 C.ar    1  UNL1        0.0004
     11 C          63.8115   90.9287   12.2031 C.ar    1  UNL1        0.0314
     12 O          65.0999   92.7905   10.9290 O.3     1  UNL1       -0.4757
     13 C          67.5250   92.5030   10.0423 C.3     1  UNL1        0.0512
     14 C          66.4440   93.3747   10.6094 C.3     1  UNL1        0.2055
     15 C          60.3694   87.7238   10.7004 C.3     1  UNL1        0.1154
     16 C          61.0426   86.8980    9.6447 C.3     1  UNL1        0.1377
     17 C          60.2622   87.7589    8.6962 C.3     1  UNL1        0.0335
     18 C          61.6823   86.2096   10.8138 C.3     1  UNL1        0.0613
     19 C          62.5878   85.1382   10.2824 C.3     1  UNL1        0.1290
     20 C          63.4487   84.1120    9.6074 C.3     1  UNL1        0.0305
     21 C          64.2870   83.1784   10.4293 C.3     1  UNL1        0.0025
     22 C          64.2644   83.2710   11.9262 C.3     1  UNL1        0.0002
     23 C          63.4035   84.2972   12.6013 C.3     1  UNL1        0.0025
     24 C          62.5652   85.2308   11.7794 C.3     1  UNL1        0.0305
     25 O          62.5077   85.1644    8.7848 O.3     1  UNL1       -0.2256
     26 O          61.5527   86.2520    8.3906 O.3     1  UNL1       -0.2251
@<TRIPOS>BOND
     1    13    14    1
     2    14    12    1
     3    12     6    1
     4     6     7   ar
     5     7     8   ar
     6     8     9   ar
     7     9    10   ar
     8    10    11   ar
     9    11     5    1
    10     5     1    1
    11     1     2   am
    12     2     3    2
    13     2    15    1
    14    15    16    1
    15    16    17    1
    16    16    18    1
    17    18    19    1
    18    19    20    1
    19    20    21    1
    20    21    22    1
    21    22    23    1
    22    23    24    1
    23    19    25    1
    24    25    26    1
    25    11     6   ar
    26    26    16    1
    27    24    19    1
    28     1     4    1
@<TRIPOS>MOLECULE
*****
 26 28 0 0 0
SMALL
GASTEIGER

@<TRIPOS>ATOM
      1 N          62.0648   87.2795   11.5788 N.am    1  UNL1       -0.3003
      2 C          61.0840   88.4049   11.4315 C.2     1  UNL1        0.2252
      3 O          59.7393   88.1522   10.8170 O.2     1  UNL1       -0.2750
      4 H          62.9474   87.4454   11.9821 H       1  UNL1        0.1497
      5 C          61.7007   85.9015   11.1115 C.3     1  UNL1        0.1193
      6 C          63.1459   84.3411   12.6036 C.ar    1  UNL1        0.1361
      7 C          64.1325   83.2190   12.7365 C.ar    1  UNL1        0.0366
      8 C          64.6605   82.5354   11.5102 C.ar    1  UNL1        0.0031
      9 C          64.2019   82.9737   10.1510 C.ar    1  UNL1       -0.0001
     10 C          63.2153   84.0958   10.0181 C.ar    1  UNL1        0.0004
     11 C          62.6873   84.7794   11.2444 C.ar    1  UNL1        0.0314
     12 O          62.6180   85.0247   13.8299 O.3     1  UNL1       -0.4757
     13 C          64.4886   86.5426   14.8029 C.3     1  UNL1        0.0512
     14 C          63.5501   85.3817   14.9496 C.3     1  UNL1        0.2055
     15 C          61.4480   89.7831   11.8988 C.3     1  UNL1        0.1154
     16 C          62.4128   90.6135   11.1055 C.3     1  UNL1        0.1377
     17 C          61.4308   90.4061    9.9907 C.3     1  UNL1        0.0335
     18 C          63.1931   90.6472   12.3861 C.3     1  UNL1        0.0613
     19 C          64.4349   91.4552   12.1512 C.3     1  UNL1        0.1290
     20 C          65.6262   92.2825   11.7688 C.3     1  UNL1        0.0305
     21 C          66.6934   92.5737   12.7818 C.3     1  UNL1        0.0025
     22 C          66.5692   92.0377   14.1772 C.3     1  UNL1        0.0002
     23 C          65.3779   91.2104   14.5596 C.3     1  UNL1        0.0025
     24 C          64.3107   90.9192   13.5466 C.3     1  UNL1        0.0305
     25 O          64.4221   91.9208   10.7253 O.3     1  UNL1       -0.2256
     26 O          63.1723   91.4006   10.0790 O.3     1  UNL1       -0.2251
@<TRIPOS>BOND
     1    13    14    1
     2    14    12    1
     3    12     6    1
     4     6     7   ar
     5     7     8   ar
     6     8     9   ar
     7     9    10   ar
     8    10    11   ar
     9    11     5    1
    10     5     1    1
    11     1     2   am
    12     2     3    2
    13     2    15    1
    14    15    16    1
    15    16    17    1
    16    16    18    1
    17    18    19    1
    18    19    20    1
    19    20    21    1
    20    21    22    1
    21    22    23    1
    22    23    24    1
    23    19    25    1
    24    25    26    1
    25    11     6   ar
    26    26    16    1
    27    24    19    1
    28     1     4    1
@<TRIPOS>MOLECULE
*****
 26 28 0 0 0
SMALL
GASTEIGER

@<TRIPOS>ATOM
      1 N          63.1418   86.8623   12.3517 N.am    1  UNL1       -0.3003
      2 C          63.1618   88.3581   12.4636 C.2     1  UNL1        0.2252
      3 O          63.6581   89.0096   13.7202 O.2     1  UNL1       -0.2750
      4 H          62.8161   86.4347   11.5269 H       1  UNL1        0.1497
      5 C          63.6181   86.0182   13.4964 C.3     1  UNL1        0.1193
      6 C          62.4798   83.9754   14.6283 C.ar    1  UNL1        0.1361
      7 C          62.1765   82.5066   14.6541 C.ar    1  UNL1        0.0366
      8 C          62.7083   81.6119   13.5740 C.ar    1  UNL1        0.0031
      9 C          63.5433   82.1859   12.4681 C.ar    1  UNL1       -0.0001
     10 C          63.8466   83.6547   12.4422 C.ar    1  UNL1        0.0004
     11 C          63.3148   84.5494   13.5223 C.ar    1  UNL1        0.0314
     12 O          61.9480   84.8701   15.7083 O.3     1  UNL1       -0.4757
     13 C          62.4925   86.5425   17.6207 C.3     1  UNL1        0.0512
     14 C          62.8516   85.3300   16.8139 C.3     1  UNL1        0.2055
     15 C          62.6855   89.2023   11.3187 C.3     1  UNL1        0.1154
     16 C          61.3621   88.9140   10.6742 C.3     1  UNL1        0.1377
     17 C          60.8736   90.0379   11.5392 C.3     1  UNL1        0.0335
     18 C          62.1273   87.8504    9.9439 C.3     1  UNL1        0.0613
     19 C          61.1746   87.1396    9.0288 C.3     1  UNL1        0.1290
     20 C          60.1108   86.5256    8.1679 C.3     1  UNL1        0.0305
     21 C          60.4521   85.3899    7.2494 C.3     1  UNL1        0.0025
     22 C          61.8573   84.8683    7.1918 C.3     1  UNL1        0.0002
     23 C          62.9212   85.4823    8.0526 C.3     1  UNL1        0.0025
     24 C          62.5798   86.6180    8.9711 C.3     1  UNL1        0.0305
     25 O          59.8207   87.7640    9.1935 O.3     1  UNL1       -0.2256
     26 O          59.9366   88.8607   10.2104 O.3     1  UNL1       -0.2251
@<TRIPOS>BOND
     1    13    14    1
     2    14    12    1
     3    12     6    1
     4     6     7   ar
     5     7     8   ar
     6     8     9   ar
     7     9    10   ar
     8    10    11   ar
     9    11     5    1
    10     5     1    1
    11     1     2   am
    12     2     3    2
    13     2    15    1
    14    15    16    1
    15    16    17    1
    16    16    18    1
    17    18    19    1
    18    19    20    1
    19    20    21    1
    20    21    22    1
    21    22    23    1
    22    23    24    1
    23    19    25    1
    24    25    26    1
    25    11     6   ar
    26    26    16    1
    27    24    19    1
    28     1     4    1
