@<TRIPOS>MOLECULE
*****
 17 19 0 0 0
SMALL
GASTEIGER

@<TRIPOS>ATOM
      1 C          63.0155   84.3767   12.6291 C.2     1  UNL1        0.3371
      2 N          63.3951   85.2875   13.7588 N.2     1  UNL1        0.0113
      3 C          63.6905   84.7180   15.1145 C.2     1  UNL1        0.4718
      4 N          63.6064   83.2375   15.3407 N.2     1  UNL1        0.0177
      5 C          63.2268   82.3266   14.2110 C.2     1  UNL1        0.3919
      6 N          63.0635   80.8375   14.1339 N.2     1  UNL1       -0.0102
      7 C          62.6672   80.4868   12.7303 C.2     1  UNL1        0.3354
      8 N          62.5855   81.7592   11.9401 N.2     1  UNL1       -0.2031
      9 C          62.9314   82.8962   12.8552 C.3     1  UNL1        0.3227
     10 N          62.7201   84.9463   11.2732 N.pl3   1  UNL1       -0.2137
     11 H          63.2052   84.6144   10.4835 H       1  UNL1        0.2924
     12 C          61.6855   86.0217   11.1207 C.3     1  UNL1        0.2640
     13 C          62.5264   89.7244   10.3160 C.ar    1  UNL1        0.0436
     14 C          62.9543   89.6353   11.7508 C.ar    1  UNL1        0.1793
     15 O          62.6913   88.2374   12.2269 O.2     1  UNL1       -0.4505
     16 C          62.1010   87.4626   11.0863 C.ar    1  UNL1        0.1699
     17 C          61.9991   88.3816    9.9052 C.ar    1  UNL1        0.0404
@<TRIPOS>BOND
     1    13    14   ar
     2    14    15   ar
     3    15    16   ar
     4    16    12    1
     5    12    10    1
     6    10     1    1
     7     1     2    2
     8     2     3    1
     9     3     4    2
    10     4     5    1
    11     5     6    2
    12     6     7    1
    13     7     8    2
    14     8     9    1
    15    16    17   ar
    16    17    13   ar
    17     9     1    1
    18     9     5    1
    19    10    11    1
@<TRIPOS>MOLECULE
*****
 17 19 0 0 0
SMALL
GASTEIGER

@<TRIPOS>ATOM
      1 C          62.5760   84.9175   11.7758 C.2     1  UNL1        0.3371
      2 N          63.2154   84.3592   10.5391 N.2     1  UNL1        0.0113
      3 C          64.0758   83.1337   10.6275 C.2     1  UNL1        0.4718
      4 N          64.2967   82.4664   11.9527 N.2     1  UNL1        0.0177
      5 C          63.6573   83.0246   13.1893 C.2     1  UNL1        0.3919
      6 N          63.6934   82.5860   14.6233 N.2     1  UNL1       -0.0102
      7 C          62.8553   83.5405   15.4212 C.2     1  UNL1        0.3354
      8 N          62.3012   84.5690   14.4803 N.2     1  UNL1       -0.2031
      9 C          62.7969   84.2502   13.1009 C.3     1  UNL1        0.3227
     10 N          61.7156   86.1430   11.6874 N.pl3   1  UNL1       -0.2137
     11 H          60.9792   86.2747   12.3274 H       1  UNL1        0.2924
     12 C          61.9773   87.1679   10.6239 C.3     1  UNL1        0.2640
     13 C          59.4404   86.8994    7.6986 C.ar    1  UNL1        0.0436
     14 C          59.5304   88.3869    7.8685 C.ar    1  UNL1        0.1793
     15 O          60.4916   88.6686    8.9850 O.2     1  UNL1       -0.4505
     16 C          60.9957   87.3552    9.5051 C.ar    1  UNL1        0.1699
     17 C          60.3460   86.2617    8.7101 C.ar    1  UNL1        0.0404
@<TRIPOS>BOND
     1    13    14   ar
     2    14    15   ar
     3    15    16   ar
     4    16    12    1
     5    12    10    1
     6    10     1    1
     7     1     2    2
     8     2     3    1
     9     3     4    2
    10     4     5    1
    11     5     6    2
    12     6     7    1
    13     7     8    2
    14     8     9    1
    15    16    17   ar
    16    17    13   ar
    17     9     1    1
    18     9     5    1
    19    10    11    1
@<TRIPOS>MOLECULE
*****
 17 19 0 0 0
SMALL
GASTEIGER

@<TRIPOS>ATOM
      1 C          62.5243   84.8708   11.8211 C.2     1  UNL1        0.3371
      2 N          63.1969   84.3269   10.5956 N.2     1  UNL1        0.0113
      3 C          64.1208   83.1506   10.7067 C.2     1  UNL1        0.4718
      4 N          64.3722   82.5180   12.0434 N.2     1  UNL1        0.0177
      5 C          63.6997   83.0619   13.2689 C.2     1  UNL1        0.3919
      6 N          63.7540   82.6496   14.7101 N.2     1  UNL1       -0.0102
      7 C          62.8636   83.5713   15.4897 C.2     1  UNL1        0.3354
      8 N          62.2590   84.5531   14.5302 N.2     1  UNL1       -0.2031
      9 C          62.7757   84.2383   13.1577 C.3     1  UNL1        0.3227
     10 N          61.6004   86.0472   11.7099 N.pl3   1  UNL1       -0.2137
     11 H          60.8009   86.1010   12.2818 H       1  UNL1        0.2924
     12 C          61.8946   87.1417   10.7273 C.3     1  UNL1        0.2640
     13 C          63.1637   90.7686   11.2751 C.ar    1  UNL1        0.0436
     14 C          63.4641   90.1519   12.6089 C.ar    1  UNL1        0.1793
     15 O          63.0253   88.7182   12.5661 O.2     1  UNL1       -0.4505
     16 C          62.4537   88.4489   11.2058 C.ar    1  UNL1        0.1699
     17 C          62.5392   89.7161   10.4078 C.ar    1  UNL1        0.0404
@<TRIPOS>BOND
     1    13    14   ar
     2    14    15   ar
     3    15    16   ar
     4    16    12    1
     5    12    10    1
     6    10     1    1
     7     1     2    2
     8     2     3    1
     9     3     4    2
    10     4     5    1
    11     5     6    2
    12     6     7    1
    13     7     8    2
    14     8     9    1
    15    16    17   ar
    16    17    13   ar
    17     9     1    1
    18     9     5    1
    19    10    11    1
@<TRIPOS>MOLECULE
*****
 17 19 0 0 0
SMALL
GASTEIGER

@<TRIPOS>ATOM
      1 C          64.6312   91.8073   12.6157 C.2     1  UNL1        0.3371
      2 N          64.8999   92.0697   11.1635 N.2     1  UNL1        0.0113
      3 C          66.1347   92.8151   10.7519 C.2     1  UNL1        0.4718
      4 N          67.1010   93.2982   11.7926 N.2     1  UNL1        0.0177
      5 C          66.8324   93.0357   13.2448 C.2     1  UNL1        0.3919
      6 N          67.5971   93.3873   14.4865 N.2     1  UNL1       -0.0102
      7 C          66.8348   92.8591   15.6654 C.2     1  UNL1        0.3354
      8 N          65.5989   92.1811   15.1524 N.2     1  UNL1       -0.2031
      9 C          65.5975   92.2903   13.6564 C.3     1  UNL1        0.3227
     10 N          63.3963   91.0618   13.0272 N.pl3   1  UNL1       -0.2137
     11 H          62.5752   91.5560   13.2527 H       1  UNL1        0.2924
     12 C          63.4125   89.5635   13.0953 C.3     1  UNL1        0.2640
     13 C          61.9931   88.1335    9.7778 C.ar    1  UNL1        0.0436
     14 C          62.1016   86.8885   10.6071 C.ar    1  UNL1        0.1793
     15 O          62.6465   87.2725   11.9508 O.2     1  UNL1       -0.4505
     16 C          62.8748   88.7550   11.9519 C.ar    1  UNL1        0.1699
     17 C          62.4710   89.2872   10.6089 C.ar    1  UNL1        0.0404
@<TRIPOS>BOND
     1    13    14   ar
     2    14    15   ar
     3    15    16   ar
     4    16    12    1
     5    12    10    1
     6    10     1    1
     7     1     2    2
     8     2     3    1
     9     3     4    2
    10     4     5    1
    11     5     6    2
    12     6     7    1
    13     7     8    2
    14     8     9    1
    15    16    17   ar
    16    17    13   ar
    17     9     1    1
    18     9     5    1
    19    10    11    1
@<TRIPOS>MOLECULE
*****
 17 19 0 0 0
SMALL
GASTEIGER

@<TRIPOS>ATOM
      1 C          63.8110   82.4663   12.4353 C.2     1  UNL1        0.3371
      2 N          63.1350   81.1328   12.3135 N.2     1  UNL1        0.0113
      3 C          62.2207   80.6533   13.4016 C.2     1  UNL1        0.4718
      4 N          61.9824   81.5073   14.6117 N.2     1  UNL1        0.0177
      5 C          62.6584   82.8407   14.7334 C.2     1  UNL1        0.3919
      6 N          62.6161   83.8936   15.8010 N.2     1  UNL1       -0.0102
      7 C          63.5044   85.0239   15.3726 C.2     1  UNL1        0.3354
      8 N          64.0956   84.6695   14.0403 N.2     1  UNL1       -0.2031
      9 C          63.5727   83.3202   13.6453 C.3     1  UNL1        0.3227
     10 N          64.7253   82.9458   11.3471 N.pl3   1  UNL1       -0.2137
     11 H          65.6880   83.0514   11.5240 H       1  UNL1        0.2924
     12 C          64.1728   83.2644    9.9895 C.3     1  UNL1        0.2640
     13 C          62.0131   86.2821    8.8519 C.ar    1  UNL1        0.0436
     14 C          61.5106   86.0769   10.2501 C.ar    1  UNL1        0.1793
     15 O          62.2584   84.9214   10.8465 O.2     1  UNL1       -0.4505
     16 C          63.2231   84.4126    9.8168 C.ar    1  UNL1        0.1699
     17 C          63.0715   85.2536    8.5840 C.ar    1  UNL1        0.0404
@<TRIPOS>BOND
     1    13    14   ar
     2    14    15   ar
     3    15    16   ar
     4    16    12    1
     5    12    10    1
     6    10     1    1
     7     1     2    2
     8     2     3    1
     9     3     4    2
    10     4     5    1
    11     5     6    2
    12     6     7    1
    13     7     8    2
    14     8     9    1
    15    16    17   ar
    16    17    13   ar
    17     9     1    1
    18     9     5    1
    19    10    11    1
@<TRIPOS>MOLECULE
*****
 17 19 0 0 0
SMALL
GASTEIGER

@<TRIPOS>ATOM
      1 C          62.8326   84.6821   12.5645 C.2     1  UNL1        0.3371
      2 N          63.4209   85.6757   13.5219 N.2     1  UNL1        0.0113
      3 C          64.1021   85.2009   14.7710 C.2     1  UNL1        0.4718
      4 N          64.1952   83.7325   15.0628 N.2     1  UNL1        0.0177
      5 C          63.6069   82.7389   14.1054 C.2     1  UNL1        0.3919
      6 N          63.5455   81.2403   14.1260 N.2     1  UNL1       -0.0102
      7 C          62.8262   80.7889   12.8895 C.2     1  UNL1        0.3354
      8 N          62.4430   82.0085   12.1048 N.2     1  UNL1       -0.2031
      9 C          62.9256   83.2137   12.8563 C.3     1  UNL1        0.3227
     10 N          62.1512   85.1569   11.3153 N.pl3   1  UNL1       -0.2137
     11 H          61.7845   84.5040   10.6761 H       1  UNL1        0.2924
     12 C          62.0287   86.6263   11.0401 C.3     1  UNL1        0.2640
     13 C          59.7551   87.1440    7.9372 C.ar    1  UNL1        0.0436
     14 C          59.9224   88.5567    8.4128 C.ar    1  UNL1        0.1793
     15 O          60.7945   88.5347    9.6331 O.2     1  UNL1       -0.4505
     16 C          61.1661   87.1085    9.9116 C.ar    1  UNL1        0.1699
     17 C          60.5237   86.2489    8.8634 C.ar    1  UNL1        0.0404
@<TRIPOS>BOND
     1    13    14   ar
     2    14    15   ar
     3    15    16   ar
     4    16    12    1
     5    12    10    1
     6    10     1    1
     7     1     2    2
     8     2     3    1
     9     3     4    2
    10     4     5    1
    11     5     6    2
    12     6     7    1
    13     7     8    2
    14     8     9    1
    15    16    17   ar
    16    17    13   ar
    17     9     1    1
    18     9     5    1
    19    10    11    1
@<TRIPOS>MOLECULE
*****
 17 19 0 0 0
SMALL
GASTEIGER

@<TRIPOS>ATOM
      1 C          64.6582   91.7277   13.7778 C.2     1  UNL1        0.3371
      2 N          65.2633   91.9223   15.1364 N.2     1  UNL1        0.0113
      3 C          66.5087   92.7435   15.2920 C.2     1  UNL1        0.4718
      4 N          67.1493   93.3700   14.0890 N.2     1  UNL1        0.0177
      5 C          66.5442   93.1754   12.7304 C.2     1  UNL1        0.3919
      6 N          66.9486   93.6663   11.3719 N.2     1  UNL1       -0.0102
      7 C          65.9529   93.1484   10.3767 C.2     1  UNL1        0.3354
      8 N          64.9332   92.3375   11.1200 N.2     1  UNL1       -0.2031
      9 C          65.2986   92.3542   12.5747 C.3     1  UNL1        0.3227
     10 N          63.4126   90.9065   13.6221 N.pl3   1  UNL1       -0.2137
     11 H          62.5781   91.1898   14.0611 H       1  UNL1        0.2924
     12 C          63.4384   89.6536   12.7978 C.3     1  UNL1        0.2640
     13 C          61.2068   89.1148    9.6681 C.ar    1  UNL1        0.0436
     14 C          60.2115   88.9131   10.7720 C.ar    1  UNL1        0.1793
     15 O          60.9263   89.0903   12.0787 O.2     1  UNL1       -0.4505
     16 C          62.3633   89.4016   11.7825 C.ar    1  UNL1        0.1699
     17 C          62.5367   89.4167   10.2926 C.ar    1  UNL1        0.0404
@<TRIPOS>BOND
     1    13    14   ar
     2    14    15   ar
     3    15    16   ar
     4    16    12    1
     5    12    10    1
     6    10     1    1
     7     1     2    2
     8     2     3    1
     9     3     4    2
    10     4     5    1
    11     5     6    2
    12     6     7    1
    13     7     8    2
    14     8     9    1
    15    16    17   ar
    16    17    13   ar
    17     9     1    1
    18     9     5    1
    19    10    11    1
@<TRIPOS>MOLECULE
*****
 17 19 0 0 0
SMALL
GASTEIGER

@<TRIPOS>ATOM
      1 C          66.7179   93.6533   11.1934 C.2     1  UNL1        0.3371
      2 N          67.5209   92.4104   10.9477 N.2     1  UNL1        0.0113
      3 C          68.3643   92.2943    9.7128 C.2     1  UNL1        0.4718
      4 N          68.4049   93.4211    8.7235 N.2     1  UNL1        0.0177
      5 C          67.6020   94.6640    8.9692 C.2     1  UNL1        0.3919
      6 N          67.4440   95.9294    8.1793 N.2     1  UNL1       -0.0102
      7 C          66.5029   96.8275    8.9260 C.2     1  UNL1        0.3354
      8 N          66.0792   96.1173   10.1774 N.2     1  UNL1       -0.2031
      9 C          66.7585   94.7801   10.2041 C.3     1  UNL1        0.3227
     10 N          65.8744   93.7694   12.4283 N.pl3   1  UNL1       -0.2137
     11 H          65.2621   94.5328   12.5362 H       1  UNL1        0.2924
     12 C          65.9638   92.7225   13.4988 C.3     1  UNL1        0.2640
     13 C          64.0399   89.3849   13.9722 C.ar    1  UNL1        0.0436
     14 C          63.3718   89.9332   12.7464 C.ar    1  UNL1        0.1793
     15 O          64.0111   91.2502   12.4198 O.2     1  UNL1       -0.4505
     16 C          65.0744   91.5159   13.4438 C.ar    1  UNL1        0.1699
     17 C          65.0923   90.3630   14.4033 C.ar    1  UNL1        0.0404
@<TRIPOS>BOND
     1    13    14   ar
     2    14    15   ar
     3    15    16   ar
     4    16    12    1
     5    12    10    1
     6    10     1    1
     7     1     2    2
     8     2     3    1
     9     3     4    2
    10     4     5    1
    11     5     6    2
    12     6     7    1
    13     7     8    2
    14     8     9    1
    15    16    17   ar
    16    17    13   ar
    17     9     1    1
    18     9     5    1
    19    10    11    1
@<TRIPOS>MOLECULE
*****
 17 19 0 0 0
SMALL
GASTEIGER

@<TRIPOS>ATOM
      1 C          62.7554   90.0020   12.0644 C.2     1  UNL1        0.3371
      2 N          63.3480   90.7858   10.9311 N.2     1  UNL1        0.0113
      3 C          64.3778   91.8410   11.2067 C.2     1  UNL1        0.4718
      4 N          64.8150   92.1124   12.6157 N.2     1  UNL1        0.0177
      5 C          64.2223   91.3286   13.7490 C.2     1  UNL1        0.3919
      6 N          64.4552   91.3734   15.2302 N.2     1  UNL1       -0.0102
      7 C          63.5693   90.3458   15.8699 C.2     1  UNL1        0.3354
      8 N          62.7889   89.6660   14.7841 N.2     1  UNL1       -0.2031
      9 C          63.1925   90.2734   13.4733 C.3     1  UNL1        0.3227
     10 N          61.7255   88.9468   11.7887 N.pl3   1  UNL1       -0.2137
     11 H          60.8711   88.9531   12.2778 H       1  UNL1        0.2924
     12 C          61.9975   87.8819   10.7679 C.3     1  UNL1        0.2640
     13 C          59.6652   86.6170    7.9349 C.ar    1  UNL1        0.0436
     14 C          59.4965   88.1019    7.8078 C.ar    1  UNL1        0.1793
     15 O          60.3497   88.7566    8.8535 O.2     1  UNL1       -0.4505
     16 C          61.0456   87.6762    9.6269 C.ar    1  UNL1        0.1699
     17 C          60.6226   86.3538    9.0592 C.ar    1  UNL1        0.0404
@<TRIPOS>BOND
     1    13    14   ar
     2    14    15   ar
     3    15    16   ar
     4    16    12    1
     5    12    10    1
     6    10     1    1
     7     1     2    2
     8     2     3    1
     9     3     4    2
    10     4     5    1
    11     5     6    2
    12     6     7    1
    13     7     8    2
    14     8     9    1
    15    16    17   ar
    16    17    13   ar
    17     9     1    1
    18     9     5    1
    19    10    11    1
