@<TRIPOS>MOLECULE
*****
 42 47 0 0 0
SMALL
GASTEIGER

@<TRIPOS>ATOM
      1 C          62.3908   94.0037   -1.2908 C.ar    1  UNL1        0.0284
      2 C          61.6657   94.3657   -2.5530 C.ar    1  UNL1        0.0052
      3 C          62.4067   94.4127   -3.8563 C.ar    1  UNL1        0.0351
      4 C          63.8727   94.0979   -3.8974 C.ar    1  UNL1        0.0850
      5 C          64.5977   93.7360   -2.6352 C.ar    1  UNL1        0.0488
      6 C          63.8568   93.6889   -1.3319 C.ar    1  UNL1        0.1416
      7 F          64.5818   93.3270   -0.0696 F       1  UNL1       -0.2041
      8 N          64.6136   94.1450   -5.2009 N.ar    1  UNL1       -0.2421
      9 C          63.8886   94.5069   -6.4631 C.ar    1  UNL1        0.1193
     10 C          62.4225   94.8217   -6.4220 C.ar    1  UNL1        0.1174
     11 N          61.4484   95.2079   -7.4953 N.ar    1  UNL1       -0.2294
     12 C          60.1054   95.3995   -6.8552 C.ar    1  UNL1        0.1208
     13 C          58.8403   95.7902   -7.5602 C.3     1  UNL1        0.0718
     14 N          60.2495   95.1317   -5.3863 N.ar    1  UNL1       -0.3138
     15 C          61.6816   94.7747   -5.1186 C.ar    1  UNL1        0.0816
     16 C          59.1540   95.2077   -4.3646 C.3     1  UNL1        0.1224
     17 C          58.8893   96.4957   -3.6430 C.3     1  UNL1        0.0469
     18 C          57.7937   96.5717   -2.6213 C.3     1  UNL1        0.0956
     19 N          56.9628   95.3594   -2.3212 N.am    1  UNL1       -0.2746
     20 C          55.8672   95.4354   -1.2995 C.2     1  UNL1        0.2556
     21 O          55.0362   94.2232   -0.9993 O.2     1  UNL1       -0.2722
     22 C          57.2275   94.0713   -3.0428 C.3     1  UNL1        0.1306
     23 C          58.3230   93.9954   -4.0645 C.3     1  UNL1        0.2011
     24 F          58.5876   92.7072   -4.7860 F       1  UNL1       -0.2334
     25 C          55.6026   96.7236   -0.5779 C.3     1  UNL1        0.2232
     26 O          54.3953   96.8558    0.3025 O.3     1  UNL1       -0.3737
     27 H          53.5926   96.8056   -0.2397 H       1  UNL1        0.2110
     28 C          60.1680   93.8624    2.6194 C.ar    1  UNL1        0.1495
     29 C          60.3001   92.6219    1.7865 C.ar    1  UNL1        0.0377
     30 C          61.0410   92.6690    0.4831 C.ar    1  UNL1        0.0040
     31 C          61.6498   93.9567    0.0127 C.ar    1  UNL1        0.0129
     32 C          61.5178   95.1971    0.8455 C.ar    1  UNL1        0.0608
     33 CL         62.1266   96.4848    0.3751 Cl      1  UNL1       -0.0821
     34 C          60.7768   95.1500    2.1490 C.ar    1  UNL1        0.0490
     35 O          59.4270   93.8153    3.9228 O.3     1  UNL1       -0.4223
     36 C          56.1103   90.2068    5.6485 C.3     1  UNL1        0.0523
     37 C          57.5161   90.6939    5.4575 C.ar    1  UNL1        0.0655
     38 C          58.6693   89.8640    5.9385 C.ar    1  UNL1        0.0356
     39 C          60.0751   90.3511    5.7475 C.ar    1  UNL1        0.1049
     40 N          60.3277   91.6683    5.0756 N.ar    1  UNL1       -0.1924
     41 C          59.1745   92.4982    4.5947 C.ar    1  UNL1        0.3243
     42 N          57.7687   92.0110    4.7857 N.ar    1  UNL1       -0.1983
@<TRIPOS>BOND
     1    36    37    1
     2    37    38   ar
     3    38    39   ar
     4    39    40   ar
     5    40    41   ar
     6    41    35    1
     7    35    28    1
     8    28    29   ar
     9    29    30   ar
    10    30    31   ar
    11    31     1    1
    12     1     2   ar
    13     2     3   ar
    14     3     4   ar
    15     4     5   ar
    16     5     6   ar
    17     6     7    1
    18     4     8   ar
    19     8     9   ar
    20     9    10   ar
    21    10    11   ar
    22    11    12   ar
    23    12    13    1
    24    12    14   ar
    25    16    14    1
    26    16    17    1
    27    17    18    1
    28    18    19    1
    29    19    20   am
    30    20    21    2
    31    20    25    1
    32    25    26    1
    33    19    22    1
    34    22    23    1
    35    23    24    1
    36    14    15   ar
    37    31    32   ar
    38    32    33    1
    39    32    34   ar
    40    41    42   ar
    41    42    37   ar
    42    34    28   ar
    43     6     1   ar
    44    15    10   ar
    45    15     3   ar
    46    23    16    1
    47    26    27    1
@<TRIPOS>MOLECULE
*****
 42 47 0 0 0
SMALL
GASTEIGER

@<TRIPOS>ATOM
      1 C          63.0245   95.0235   -0.8028 C.ar    1  UNL1        0.0284
      2 C          62.3975   94.9780   -2.1646 C.ar    1  UNL1        0.0052
      3 C          63.2405   95.1961   -3.3860 C.ar    1  UNL1        0.0351
      4 C          64.7104   95.4597   -3.2455 C.ar    1  UNL1        0.0850
      5 C          65.3374   95.5052   -1.8836 C.ar    1  UNL1        0.0488
      6 C          64.4944   95.2871   -0.6622 C.ar    1  UNL1        0.1416
      7 F          65.1214   95.3326    0.6998 F       1  UNL1       -0.2041
      8 N          65.5534   95.6778   -4.4669 N.ar    1  UNL1       -0.2421
      9 C          64.9265   95.6323   -5.8288 C.ar    1  UNL1        0.1193
     10 C          63.4565   95.3687   -5.9693 C.ar    1  UNL1        0.1174
     11 N          62.5656   95.2663   -7.1718 N.ar    1  UNL1       -0.2294
     12 C          61.1720   94.9849   -6.6935 C.ar    1  UNL1        0.1208
     13 C          59.9613   94.8065   -7.5610 C.3     1  UNL1        0.0718
     14 N          61.2017   94.9134   -5.1955 N.ar    1  UNL1       -0.3138
     15 C          62.6135   95.1506   -4.7480 C.ar    1  UNL1        0.0816
     16 C          60.0258   94.6508   -4.3019 C.3     1  UNL1        0.1224
     17 C          59.9924   93.4171   -3.4494 C.3     1  UNL1        0.0469
     18 C          58.8166   93.1546   -2.5558 C.3     1  UNL1        0.0956
     19 N          57.6741   94.1258   -2.5148 N.am    1  UNL1       -0.2746
     20 C          56.4983   93.8632   -1.6213 C.2     1  UNL1        0.2556
     21 O          55.3558   94.8343   -1.5802 O.2     1  UNL1       -0.2722
     22 C          57.7076   95.3595   -3.3674 C.3     1  UNL1        0.1306
     23 C          58.8834   95.6220   -4.2609 C.3     1  UNL1        0.2011
     24 F          58.9168   96.8558   -5.1134 F       1  UNL1       -0.2334
     25 C          56.4649   92.6294   -0.7687 C.3     1  UNL1        0.2232
     26 O          56.7493   91.2887   -1.3782 O.3     1  UNL1       -0.3737
     27 H          56.0496   91.0668   -2.0123 H       1  UNL1        0.2110
     28 C          60.4956   94.3691    2.8615 C.ar    1  UNL1        0.1495
     29 C          61.6475   93.4530    2.5718 C.ar    1  UNL1        0.0377
     30 C          62.4904   93.6711    1.3504 C.ar    1  UNL1        0.0040
     31 C          62.1815   94.8054    0.4187 C.ar    1  UNL1        0.0129
     32 C          61.0296   95.7215    0.7084 C.ar    1  UNL1        0.0608
     33 CL         60.7207   96.8557   -0.2233 Cl      1  UNL1       -0.0821
     34 C          60.1867   95.5034    1.9298 C.ar    1  UNL1        0.0490
     35 O          59.6526   94.1510    4.0829 O.3     1  UNL1       -0.4223
     36 C          56.2420   90.4690    5.4284 C.3     1  UNL1        0.0523
     37 C          57.6599   90.9161    5.2294 C.ar    1  UNL1        0.0655
     38 C          58.7904   89.9693    5.5041 C.ar    1  UNL1        0.0356
     39 C          60.2083   90.4164    5.3051 C.ar    1  UNL1        0.1049
     40 N          60.4958   91.8103    4.8314 N.ar    1  UNL1       -0.1924
     41 C          59.3653   92.7571    4.5567 C.ar    1  UNL1        0.3243
     42 N          57.9473   92.3100    4.7557 N.ar    1  UNL1       -0.1983
@<TRIPOS>BOND
     1    36    37    1
     2    37    38   ar
     3    38    39   ar
     4    39    40   ar
     5    40    41   ar
     6    41    35    1
     7    35    28    1
     8    28    29   ar
     9    29    30   ar
    10    30    31   ar
    11    31     1    1
    12     1     2   ar
    13     2     3   ar
    14     3     4   ar
    15     4     5   ar
    16     5     6   ar
    17     6     7    1
    18     4     8   ar
    19     8     9   ar
    20     9    10   ar
    21    10    11   ar
    22    11    12   ar
    23    12    13    1
    24    12    14   ar
    25    16    14    1
    26    16    17    1
    27    17    18    1
    28    18    19    1
    29    19    20   am
    30    20    21    2
    31    20    25    1
    32    25    26    1
    33    19    22    1
    34    22    23    1
    35    23    24    1
    36    14    15   ar
    37    31    32   ar
    38    32    33    1
    39    32    34   ar
    40    41    42   ar
    41    42    37   ar
    42    34    28   ar
    43     6     1   ar
    44    15    10   ar
    45    15     3   ar
    46    23    16    1
    47    26    27    1
