@<TRIPOS>MOLECULE
*****
 39 41 0 0 0
SMALL
GASTEIGER

@<TRIPOS>ATOM
      1 C          62.9304   87.9193   12.3574 C.2     1  UNL1        0.2491
      2 O          63.4844   86.5741   12.7229 O.2     1  UNL1       -0.2699
      3 N          61.7386   88.0188   11.4520 N.am    1  UNL1       -0.2776
      4 C          64.4826   91.5680   12.5236 C.ar    1  UNL1        0.1723
      5 C          63.8448   90.3223   11.9838 C.ar    1  UNL1        0.0446
      6 C          63.5683   89.1650   12.8972 C.ar    1  UNL1        0.0568
      7 C          63.9296   89.2534   14.3503 C.ar    1  UNL1        0.0078
      8 C          64.5674   90.4991   14.8901 C.ar    1  UNL1        0.0402
      9 C          64.8439   91.6564   13.9767 C.ar    1  UNL1        0.1724
     10 O          65.4818   92.9021   14.5166 O.3     1  UNL1       -0.4684
     11 C          66.6801   92.8030   15.4133 C.3     1  UNL1        0.2526
     12 O          64.7592   92.7253   11.6103 O.3     1  UNL1       -0.4723
     13 C          66.1722   93.0720   11.2457 C.3     1  UNL1        0.2082
     14 C          66.4895   94.4217   10.6732 C.3     1  UNL1        0.0794
     15 C          67.5217   94.5543    9.5929 C.3     1  UNL1        0.1461
     16 C          68.8408   92.4004    8.9843 C.3     1  UNL1        0.1741
     17 O          68.7806   93.7410    9.6544 O.3     1  UNL1       -0.3510
     18 C          61.1846   89.3640   11.0865 C.3     1  UNL1        0.0757
     19 C          60.2156   90.0503   12.0030 C.3     1  UNL1        0.0215
     20 C          61.5998   90.0229    9.8045 C.3     1  UNL1        0.0215
     21 C          61.1007   86.7731   10.9122 C.3     1  UNL1        0.0967
     22 C          61.7743   85.9993    9.8179 C.3     1  UNL1        0.0549
     23 C          61.6846   86.2893    8.3489 C.3     1  UNL1        0.0720
     24 N          62.5107   85.2688    7.6236 N.3     1  UNL1       -0.2960
     25 C          63.1111   84.3481    8.6443 C.3     1  UNL1        0.0884
     26 C          62.6560   84.7996   10.0004 C.3     1  UNL1        0.0902
     27 H          63.2514   85.7332    7.0981 H       1  UNL1        0.1233
     28 N          63.0189   84.1630   11.3092 N.am    1  UNL1       -0.3045
     29 C          64.0553   83.0797   11.3546 C.2     1  UNL1        0.2228
     30 O          64.7289   82.6328   10.0910 O.2     1  UNL1       -0.2751
     31 H          62.5767   84.4563   12.1386 H       1  UNL1        0.1494
     32 C          64.4181   82.4431   12.6635 C.3     1  UNL1        0.0897
     33 C          63.4732   82.5263   13.8254 C.3     1  UNL1        0.0359
     34 C          63.4888   83.7301   14.7202 C.ar    1  UNL1       -0.0217
     35 C          62.3055   84.0329   15.5908 C.ar    1  UNL1       -0.0043
     36 C          62.3210   85.2367   16.4857 C.ar    1  UNL1       -0.0003
     37 C          63.5200   86.1378   16.5098 C.ar    1  UNL1       -0.0000
     38 C          64.7034   85.8350   15.6391 C.ar    1  UNL1       -0.0003
     39 C          64.6878   84.6312   14.7443 C.ar    1  UNL1       -0.0043
@<TRIPOS>BOND
     1    16    17    1
     2    17    15    1
     3    15    14    1
     4    14    13    1
     5    13    12    1
     6    12     4    1
     7     4     5   ar
     8     5     6   ar
     9     6     1    1
    10     1     2    2
    11     1     3   am
    12     3    21    1
    13    22    21    1
    14    22    23    1
    15    23    24    1
    16    24    25    1
    17    25    26    1
    18    26    28    1
    19    28    29   am
    20    29    30    2
    21    29    32    1
    22    32    33    1
    23    33    34    1
    24    34    35   ar
    25    35    36   ar
    26    36    37   ar
    27    37    38   ar
    28    38    39   ar
    29     3    18    1
    30    18    19    1
    31    18    20    1
    32     6     7   ar
    33     7     8   ar
    34     8     9   ar
    35     9    10    1
    36    10    11    1
    37     9     4   ar
    38    26    22    1
    39    39    34   ar
    40    24    27    1
    41    28    31    1
@<TRIPOS>MOLECULE
*****
 39 41 0 0 0
SMALL
GASTEIGER

@<TRIPOS>ATOM
      1 C          63.1920   85.8062   12.0985 C.2     1  UNL1        0.2491
      2 O          63.3346   87.1793   12.6851 O.2     1  UNL1       -0.2699
      3 N          63.6450   84.6071   12.8775 N.am    1  UNL1       -0.2776
      4 C          60.6773   86.0845    9.0409 C.ar    1  UNL1        0.1723
      5 C          61.2730   86.2585   10.4064 C.ar    1  UNL1        0.0446
      6 C          62.5963   85.6322   10.7328 C.ar    1  UNL1        0.0568
      7 C          63.3239   84.8318    9.6937 C.ar    1  UNL1        0.0078
      8 C          62.7283   84.6578    8.3281 C.ar    1  UNL1        0.0402
      9 C          61.4050   85.2841    8.0017 C.ar    1  UNL1        0.1724
     10 O          60.8093   85.1100    6.6360 O.3     1  UNL1       -0.4684
     11 C          61.5780   84.3887    5.5689 C.3     1  UNL1        0.2526
     12 O          59.3540   86.7108    8.7144 O.3     1  UNL1       -0.4723
     13 C          59.3040   88.0482    8.0371 C.3     1  UNL1        0.2082
     14 C          60.1786   89.1669    8.5205 C.3     1  UNL1        0.0794
     15 C          60.0113   89.7023    9.9117 C.3     1  UNL1        0.1461
     16 C          62.5895   89.7092   10.2320 C.3     1  UNL1        0.1741
     17 O          61.2179   90.0595   10.7280 O.3     1  UNL1       -0.3510
     18 C          63.5023   83.2339   12.2909 C.3     1  UNL1        0.0757
     19 C          64.6050   82.6582   11.4526 C.3     1  UNL1        0.0215
     20 C          62.2570   82.4365   12.5425 C.3     1  UNL1        0.0215
     21 C          64.2406   84.7811   14.2431 C.3     1  UNL1        0.0967
     22 C          63.4163   85.3647   15.3521 C.3     1  UNL1        0.0549
     23 C          62.4218   84.6234   16.1955 C.3     1  UNL1        0.0720
     24 N          61.8326   85.5927   17.1771 N.3     1  UNL1       -0.2960
     25 C          62.4630   86.9330   16.9403 C.3     1  UNL1        0.0884
     26 C          63.4418   86.7921   15.8124 C.3     1  UNL1        0.0902
     27 H          62.0266   85.2822   18.1291 H       1  UNL1        0.1233
     28 N          64.2961   87.8865   15.2446 N.am    1  UNL1       -0.3045
     29 C          63.7764   89.2925   15.1912 C.2     1  UNL1        0.2228
     30 O          62.4022   89.6043   15.7057 O.2     1  UNL1       -0.2751
     31 H          65.1979   87.6819   14.9069 H       1  UNL1        0.1494
     32 C          64.6307   90.3869   14.6233 C.3     1  UNL1        0.0897
     33 C          64.5516   90.7187   13.1626 C.3     1  UNL1        0.0359
     34 C          65.1499   91.9951   12.6500 C.ar    1  UNL1       -0.0217
     35 C          65.9131   92.8919   13.5791 C.ar    1  UNL1       -0.0043
     36 C          66.5115   94.1683   13.0665 C.ar    1  UNL1       -0.0003
     37 C          66.3466   94.5479   11.6247 C.ar    1  UNL1       -0.0000
     38 C          65.5834   93.6510   10.6955 C.ar    1  UNL1       -0.0003
     39 C          64.9851   92.3746   11.2082 C.ar    1  UNL1       -0.0043
@<TRIPOS>BOND
     1    16    17    1
     2    17    15    1
     3    15    14    1
     4    14    13    1
     5    13    12    1
     6    12     4    1
     7     4     5   ar
     8     5     6   ar
     9     6     1    1
    10     1     2    2
    11     1     3   am
    12     3    21    1
    13    22    21    1
    14    22    23    1
    15    23    24    1
    16    24    25    1
    17    25    26    1
    18    26    28    1
    19    28    29   am
    20    29    30    2
    21    29    32    1
    22    32    33    1
    23    33    34    1
    24    34    35   ar
    25    35    36   ar
    26    36    37   ar
    27    37    38   ar
    28    38    39   ar
    29     3    18    1
    30    18    19    1
    31    18    20    1
    32     6     7   ar
    33     7     8   ar
    34     8     9   ar
    35     9    10    1
    36    10    11    1
    37     9     4   ar
    38    26    22    1
    39    39    34   ar
    40    24    27    1
    41    28    31    1
@<TRIPOS>MOLECULE
*****
 39 41 0 0 0
SMALL
GASTEIGER

@<TRIPOS>ATOM
      1 C          63.2181   85.7087   12.0728 C.2     1  UNL1        0.2491
      2 O          63.3665   87.0608   12.7049 O.2     1  UNL1       -0.2699
      3 N          63.6581   84.4815   12.8148 N.am    1  UNL1       -0.2776
      4 C          60.7153   86.0883    9.0163 C.ar    1  UNL1        0.1723
      5 C          61.3037   86.2134   10.3904 C.ar    1  UNL1        0.0446
      6 C          62.6297   85.5836   10.6986 C.ar    1  UNL1        0.0568
      7 C          63.3674   84.8288    9.6328 C.ar    1  UNL1        0.0078
      8 C          62.7790   84.7037    8.2587 C.ar    1  UNL1        0.0402
      9 C          61.4530   85.3335    7.9505 C.ar    1  UNL1        0.1724
     10 O          60.8646   85.2084    6.5763 O.3     1  UNL1       -0.4684
     11 C          61.5048   84.3033    5.5659 C.3     1  UNL1        0.2526
     12 O          59.3893   86.7181    8.7081 O.3     1  UNL1       -0.4723
     13 C          59.2462   88.2111    8.7240 C.3     1  UNL1        0.2082
     14 C          59.8555   89.0347    7.6283 C.3     1  UNL1        0.0794
     15 C          59.0455   89.3871    6.4160 C.3     1  UNL1        0.1461
     16 C          58.4784   91.5153    5.0380 C.3     1  UNL1        0.1741
     17 O          59.4813   90.5112    5.5236 O.3     1  UNL1       -0.3510
     18 C          63.5097   83.1293   12.1826 C.3     1  UNL1        0.0757
     19 C          62.2552   82.3353   12.3960 C.3     1  UNL1        0.0215
     20 C          64.6159   82.5712   11.3371 C.3     1  UNL1        0.0215
     21 C          64.2465   84.6066   14.1888 C.3     1  UNL1        0.0967
     22 C          63.4466   85.2316   15.2932 C.3     1  UNL1        0.0549
     23 C          62.4053   84.5441   16.1257 C.3     1  UNL1        0.0720
     24 N          61.8627   85.5414   17.1060 N.3     1  UNL1       -0.2960
     25 C          62.5687   86.8454   16.8793 C.3     1  UNL1        0.0884
     26 C          63.5476   86.6539   15.7589 C.3     1  UNL1        0.0902
     27 H          62.0312   85.2176   18.0584 H       1  UNL1        0.1233
     28 N          64.4661   87.7009   15.2021 N.am    1  UNL1       -0.3045
     29 C          64.0548   89.1432   15.2152 C.2     1  UNL1        0.2228
     30 O          62.7248   89.5388   15.7851 O.2     1  UNL1       -0.2751
     31 H          65.3390   87.4413   14.8281 H       1  UNL1        0.1494
     32 C          64.9734   90.1902   14.6584 C.3     1  UNL1        0.0897
     33 C          64.4152   91.3266   13.8540 C.3     1  UNL1        0.0359
     34 C          63.7043   91.0529   12.5619 C.ar    1  UNL1       -0.0217
     35 C          62.5023   90.1557   12.5426 C.ar    1  UNL1       -0.0043
     36 C          61.7914   89.8819   11.2505 C.ar    1  UNL1       -0.0003
     37 C          62.2825   90.5052    9.9776 C.ar    1  UNL1       -0.0000
     38 C          63.4845   91.4024    9.9968 C.ar    1  UNL1       -0.0003
     39 C          64.1954   91.6762   11.2890 C.ar    1  UNL1       -0.0043
@<TRIPOS>BOND
     1    16    17    1
     2    17    15    1
     3    15    14    1
     4    14    13    1
     5    13    12    1
     6    12     4    1
     7     4     5   ar
     8     5     6   ar
     9     6     1    1
    10     1     2    2
    11     1     3   am
    12     3    21    1
    13    22    21    1
    14    22    23    1
    15    23    24    1
    16    24    25    1
    17    25    26    1
    18    26    28    1
    19    28    29   am
    20    29    30    2
    21    29    32    1
    22    32    33    1
    23    33    34    1
    24    34    35   ar
    25    35    36   ar
    26    36    37   ar
    27    37    38   ar
    28    38    39   ar
    29     3    18    1
    30    18    19    1
    31    18    20    1
    32     6     7   ar
    33     7     8   ar
    34     8     9   ar
    35     9    10    1
    36    10    11    1
    37     9     4   ar
    38    26    22    1
    39    39    34   ar
    40    24    27    1
    41    28    31    1
@<TRIPOS>MOLECULE
*****
 39 41 0 0 0
SMALL
GASTEIGER

@<TRIPOS>ATOM
      1 C          62.2901   88.6335   11.5898 C.2     1  UNL1        0.2491
      2 O          62.8303   87.2957   12.0001 O.2     1  UNL1       -0.2699
      3 N          60.9163   88.7378   10.9965 N.am    1  UNL1       -0.2776
      4 C          64.3131   91.5673   13.3363 C.ar    1  UNL1        0.1723
      5 C          63.4797   90.3337   13.1532 C.ar    1  UNL1        0.0446
      6 C          63.1236   89.8672   11.7728 C.ar    1  UNL1        0.0568
      7 C          63.6009   90.6343   10.5755 C.ar    1  UNL1        0.0078
      8 C          64.4344   91.8679   10.7586 C.ar    1  UNL1        0.0402
      9 C          64.7905   92.3344   12.1390 C.ar    1  UNL1        0.1724
     10 O          65.6240   93.5680   12.3220 O.3     1  UNL1       -0.4684
     11 C          66.2739   94.2168   11.1360 C.3     1  UNL1        0.2526
     12 O          64.6693   92.0338   14.7167 O.3     1  UNL1       -0.4723
     13 C          66.0287   91.7422   15.2796 C.3     1  UNL1        0.2082
     14 C          67.1051   91.1904   14.3925 C.3     1  UNL1        0.0794
     15 C          68.1774   92.0955   13.8624 C.3     1  UNL1        0.1461
     16 C          68.8583   93.7325   15.7614 C.3     1  UNL1        0.1741
     17 O          69.2187   92.6480   14.7899 O.3     1  UNL1       -0.3510
     18 C          60.3761   90.0757   10.5862 C.3     1  UNL1        0.0757
     19 C          60.5465   90.5524    9.1742 C.3     1  UNL1        0.0215
     20 C          59.6655   90.9368   11.5879 C.3     1  UNL1        0.0215
     21 C          60.0828   87.5042   10.8134 C.3     1  UNL1        0.0967
     22 C          59.9478   86.8852    9.4538 C.3     1  UNL1        0.0549
     23 C          58.9624   87.2863    8.3964 C.3     1  UNL1        0.0720
     24 N          59.1800   86.4054    7.2019 N.3     1  UNL1       -0.2960
     25 C          60.2999   85.4600    7.5211 C.3     1  UNL1        0.0884
     26 C          60.7744   85.7565    8.9128 C.3     1  UNL1        0.0902
     27 H          59.4276   86.9747    6.3925 H       1  UNL1        0.1233
     28 N          61.8813   85.0486    9.6365 N.am    1  UNL1       -0.3045
     29 C          63.0933   84.5853    8.8841 C.2     1  UNL1        0.2228
     30 O          63.1986   84.8298    7.4078 O.2     1  UNL1       -0.2751
     31 H          61.8123   84.8881   10.6053 H       1  UNL1        0.1494
     32 C          64.2002   83.8773    9.6078 C.3     1  UNL1        0.0897
     33 C          63.9272   82.5816   10.3125 C.3     1  UNL1        0.0359
     34 C          63.3804   82.5883   11.7092 C.ar    1  UNL1       -0.0217
     35 C          62.6919   81.3707   12.2509 C.ar    1  UNL1       -0.0043
     36 C          62.1451   81.3772   13.6477 C.ar    1  UNL1       -0.0003
     37 C          62.2867   82.6014   14.5028 C.ar    1  UNL1       -0.0000
     38 C          62.9752   83.8191   13.9611 C.ar    1  UNL1       -0.0003
     39 C          63.5220   83.8125   12.5643 C.ar    1  UNL1       -0.0043
@<TRIPOS>BOND
     1    16    17    1
     2    17    15    1
     3    15    14    1
     4    14    13    1
     5    13    12    1
     6    12     4    1
     7     4     5   ar
     8     5     6   ar
     9     6     1    1
    10     1     2    2
    11     1     3   am
    12     3    21    1
    13    22    21    1
    14    22    23    1
    15    23    24    1
    16    24    25    1
    17    25    26    1
    18    26    28    1
    19    28    29   am
    20    29    30    2
    21    29    32    1
    22    32    33    1
    23    33    34    1
    24    34    35   ar
    25    35    36   ar
    26    36    37   ar
    27    37    38   ar
    28    38    39   ar
    29     3    18    1
    30    18    19    1
    31    18    20    1
    32     6     7   ar
    33     7     8   ar
    34     8     9   ar
    35     9    10    1
    36    10    11    1
    37     9     4   ar
    38    26    22    1
    39    39    34   ar
    40    24    27    1
    41    28    31    1
@<TRIPOS>MOLECULE
*****
 39 41 0 0 0
SMALL
GASTEIGER

@<TRIPOS>ATOM
      1 C          62.3635   85.6674   11.5294 C.2     1  UNL1        0.2491
      2 O          62.2354   85.7531   13.0214 O.2     1  UNL1       -0.2699
      3 N          63.2100   84.5952   10.9097 N.am    1  UNL1       -0.2776
      4 C          61.2958   89.0933    9.8344 C.ar    1  UNL1        0.1723
      5 C          62.0141   88.1069   10.7067 C.ar    1  UNL1        0.0446
      6 C          61.6452   86.6538   10.6570 C.ar    1  UNL1        0.0568
      7 C          60.5581   86.1872    9.7349 C.ar    1  UNL1        0.0078
      8 C          59.8398   87.1736    8.8626 C.ar    1  UNL1        0.0402
      9 C          60.2087   88.6267    8.9123 C.ar    1  UNL1        0.1724
     10 O          59.4903   89.6131    8.0399 O.3     1  UNL1       -0.4684
     11 C          59.3341   89.3423    6.5729 C.3     1  UNL1        0.2526
     12 O          61.6647   90.5464    9.8841 O.3     1  UNL1       -0.4723
     13 C          63.0820   90.9513   10.1622 C.3     1  UNL1        0.2082
     14 C          63.4996   91.3096   11.5576 C.3     1  UNL1        0.0794
     15 C          64.8029   92.0142   11.7928 C.3     1  UNL1        0.1461
     16 C          66.4146   93.2909   13.3810 C.3     1  UNL1        0.1741
     17 O          65.1356   92.5397   13.1578 O.3     1  UNL1       -0.3510
     18 C          63.3380   84.5095    9.4176 C.3     1  UNL1        0.0757
     19 C          63.3425   85.7618    8.5920 C.3     1  UNL1        0.0215
     20 C          63.4617   83.1714    8.7511 C.3     1  UNL1        0.0215
     21 C          63.9283   83.6088   11.7820 C.3     1  UNL1        0.0967
     22 C          63.2310   82.3598   12.2334 C.3     1  UNL1        0.0549
     23 C          63.3160   81.0152   11.5741 C.3     1  UNL1        0.0720
     24 N          62.4639   80.0604   12.3566 N.3     1  UNL1       -0.2960
     25 C          61.8522   80.8150   13.4996 C.3     1  UNL1        0.0884
     26 C          62.3263   82.2361   13.4235 C.3     1  UNL1        0.0902
     27 H          63.0381   79.2968   12.7138 H       1  UNL1        0.1233
     28 N          61.9600   83.3397   14.3711 N.am    1  UNL1       -0.3045
     29 C          62.9147   83.7458   15.4544 C.2     1  UNL1        0.2228
     30 O          64.2358   83.0484   15.5902 O.2     1  UNL1       -0.2751
     31 H          61.0930   83.7974   14.2820 H       1  UNL1        0.1494
     32 C          62.5484   84.8494   16.4019 C.3     1  UNL1        0.0897
     33 C          63.5936   85.8234   16.8589 C.3     1  UNL1        0.0359
     34 C          63.6534   87.1964   16.2577 C.ar    1  UNL1       -0.0217
     35 C          64.3131   87.4042   14.9267 C.ar    1  UNL1       -0.0043
     36 C          64.3730   88.7772   14.3255 C.ar    1  UNL1       -0.0003
     37 C          63.7731   89.9423   15.0553 C.ar    1  UNL1       -0.0000
     38 C          63.1133   89.7344   16.3864 C.ar    1  UNL1       -0.0003
     39 C          63.0535   88.3615   16.9875 C.ar    1  UNL1       -0.0043
@<TRIPOS>BOND
     1    16    17    1
     2    17    15    1
     3    15    14    1
     4    14    13    1
     5    13    12    1
     6    12     4    1
     7     4     5   ar
     8     5     6   ar
     9     6     1    1
    10     1     2    2
    11     1     3   am
    12     3    21    1
    13    22    21    1
    14    22    23    1
    15    23    24    1
    16    24    25    1
    17    25    26    1
    18    26    28    1
    19    28    29   am
    20    29    30    2
    21    29    32    1
    22    32    33    1
    23    33    34    1
    24    34    35   ar
    25    35    36   ar
    26    36    37   ar
    27    37    38   ar
    28    38    39   ar
    29     3    18    1
    30    18    19    1
    31    18    20    1
    32     6     7   ar
    33     7     8   ar
    34     8     9   ar
    35     9    10    1
    36    10    11    1
    37     9     4   ar
    38    26    22    1
    39    39    34   ar
    40    24    27    1
    41    28    31    1
@<TRIPOS>MOLECULE
*****
 39 41 0 0 0
SMALL
GASTEIGER

@<TRIPOS>ATOM
      1 C          62.3150   88.5299   11.9577 C.2     1  UNL1        0.2491
      2 O          62.7723   87.1400   12.2879 O.2     1  UNL1       -0.2699
      3 N          60.9880   88.7445   11.2920 N.am    1  UNL1       -0.2776
      4 C          64.6411   91.7168   11.5303 C.ar    1  UNL1        0.1723
      5 C          63.7715   90.5416   11.1949 C.ar    1  UNL1        0.0446
      6 C          63.1846   89.7052   12.2931 C.ar    1  UNL1        0.0568
      7 C          63.4673   90.0441   13.7267 C.ar    1  UNL1        0.0078
      8 C          64.3369   91.2194   14.0621 C.ar    1  UNL1        0.0402
      9 C          64.9238   92.0557   12.9639 C.ar    1  UNL1        0.1724
     10 O          65.7934   93.2311   13.2993 O.3     1  UNL1       -0.4684
     11 C          66.8471   93.1060   14.3595 C.3     1  UNL1        0.2526
     12 O          65.2280   92.5532   10.4321 O.3     1  UNL1       -0.4723
     13 C          65.8638   93.8733   10.7528 C.3     1  UNL1        0.2082
     14 C          66.3114   94.7793    9.6443 C.3     1  UNL1        0.0794
     15 C          67.7666   94.8711    9.2921 C.3     1  UNL1        0.1461
     16 C          68.6752   92.4528    9.0167 C.3     1  UNL1        0.1741
     17 O          68.7097   93.7823    9.7104 O.3     1  UNL1       -0.3510
     18 C          60.5307   90.1345   10.9618 C.3     1  UNL1        0.0757
     19 C          59.4112   90.7603   11.7396 C.3     1  UNL1        0.0215
     20 C          61.1929   90.8985    9.8537 C.3     1  UNL1        0.0215
     21 C          60.1184   87.5693   10.9566 C.3     1  UNL1        0.0967
     22 C          60.0795   87.0414    9.5531 C.3     1  UNL1        0.0549
     23 C          59.1347   87.4777    8.4728 C.3     1  UNL1        0.0720
     24 N          59.4499   86.6905    7.2355 N.3     1  UNL1       -0.2960
     25 C          60.5895   85.7676    7.5510 C.3     1  UNL1        0.0884
     26 C          60.9786   85.9845    8.9834 C.3     1  UNL1        0.0902
     27 H          59.7156   87.3233    6.4809 H       1  UNL1        0.1233
     28 N          62.0745   85.2699    9.7172 N.am    1  UNL1       -0.3045
     29 C          63.1569   84.5689    8.9512 C.2     1  UNL1        0.2228
     30 O          63.1436   84.5824    7.4513 O.2     1  UNL1       -0.2751
     31 H          62.0832   85.2610   10.7016 H       1  UNL1        0.1494
     32 C          64.2528   83.8543    9.6850 C.3     1  UNL1        0.0897
     33 C          63.9769   82.5370   10.3473 C.3     1  UNL1        0.0359
     34 C          63.3776   82.4996   11.7219 C.ar    1  UNL1       -0.0217
     35 C          63.5838   83.6504   12.6615 C.ar    1  UNL1       -0.0043
     36 C          62.9846   83.6130   14.0362 C.ar    1  UNL1       -0.0003
     37 C          62.1792   82.4247   14.4711 C.ar    1  UNL1       -0.0000
     38 C          61.9729   81.2738   13.5314 C.ar    1  UNL1       -0.0003
     39 C          62.5722   81.3113   12.1568 C.ar    1  UNL1       -0.0043
@<TRIPOS>BOND
     1    16    17    1
     2    17    15    1
     3    15    14    1
     4    14    13    1
     5    13    12    1
     6    12     4    1
     7     4     5   ar
     8     5     6   ar
     9     6     1    1
    10     1     2    2
    11     1     3   am
    12     3    21    1
    13    22    21    1
    14    22    23    1
    15    23    24    1
    16    24    25    1
    17    25    26    1
    18    26    28    1
    19    28    29   am
    20    29    30    2
    21    29    32    1
    22    32    33    1
    23    33    34    1
    24    34    35   ar
    25    35    36   ar
    26    36    37   ar
    27    37    38   ar
    28    38    39   ar
    29     3    18    1
    30    18    19    1
    31    18    20    1
    32     6     7   ar
    33     7     8   ar
    34     8     9   ar
    35     9    10    1
    36    10    11    1
    37     9     4   ar
    38    26    22    1
    39    39    34   ar
    40    24    27    1
    41    28    31    1
@<TRIPOS>MOLECULE
*****
 39 41 0 0 0
SMALL
GASTEIGER

@<TRIPOS>ATOM
      1 C          61.5209   89.9887   12.5415 C.2     1  UNL1        0.2491
      2 O          60.3362   89.7991   13.4418 O.2     1  UNL1       -0.2699
      3 N          61.3572   89.8831   11.0542 N.am    1  UNL1       -0.2776
      4 C          64.9354   91.8437   13.3478 C.ar    1  UNL1        0.1723
      5 C          63.5870   91.5486   12.7608 C.ar    1  UNL1        0.0446
      6 C          62.8694   90.2837   13.1286 C.ar    1  UNL1        0.0568
      7 C          63.5003   89.3140   14.0832 C.ar    1  UNL1        0.0078
      8 C          64.8488   89.6091   14.6702 C.ar    1  UNL1        0.0402
      9 C          65.5663   90.8740   14.3025 C.ar    1  UNL1        0.1724
     10 O          66.9148   91.1691   14.8895 O.3     1  UNL1       -0.4684
     11 C          67.0910   92.3370   15.8141 C.3     1  UNL1        0.2526
     12 O          65.6529   93.1086   12.9800 O.3     1  UNL1       -0.4723
     13 C          66.4332   93.1836   11.7011 C.3     1  UNL1        0.2082
     14 C          66.4909   94.4702   10.9322 C.3     1  UNL1        0.0794
     15 C          67.3740   94.5834    9.7249 C.3     1  UNL1        0.1461
     16 C          68.7386   92.4842    9.0312 C.3     1  UNL1        0.1741
     17 O          68.6745   93.8377    9.6744 O.3     1  UNL1       -0.3510
     18 C          62.5419   90.0727   10.1540 C.3     1  UNL1        0.0757
     19 C          63.3244   88.8826    9.6834 C.3     1  UNL1        0.0215
     20 C          62.9442   91.4523    9.7242 C.3     1  UNL1        0.0215
     21 C          60.0087   89.5881   10.4672 C.3     1  UNL1        0.0967
     22 C          59.8605   88.5132    9.4315 C.3     1  UNL1        0.0549
     23 C          59.3236   88.6951    8.0427 C.3     1  UNL1        0.0720
     24 N          59.3544   87.3621    7.3555 N.3     1  UNL1       -0.2960
     25 C          59.9105   86.3564    8.3196 C.3     1  UNL1        0.0884
     26 C          60.2233   87.0679    9.6026 C.3     1  UNL1        0.0902
     27 H          59.9481   87.4131    6.5277 H       1  UNL1        0.1233
     28 N          60.7979   86.4435   10.8395 N.am    1  UNL1       -0.3045
     29 C          62.0875   85.6812   10.7651 C.2     1  UNL1        0.2228
     30 O          62.8027   85.5432    9.4538 O.2     1  UNL1       -0.2751
     31 H          60.3285   86.5340   11.7001 H       1  UNL1        0.1494
     32 C          62.6622   85.0569   12.0021 C.3     1  UNL1        0.0897
     33 C          63.4911   83.8111   11.8977 C.3     1  UNL1        0.0359
     34 C          62.9675   82.5142   12.4399 C.ar    1  UNL1       -0.0217
     35 C          63.1435   81.2478   11.6556 C.ar    1  UNL1       -0.0043
     36 C          62.6199   79.9508   12.1977 C.ar    1  UNL1       -0.0003
     37 C          61.9203   79.9204   13.5242 C.ar    1  UNL1       -0.0000
     38 C          61.7443   81.1869   14.3086 C.ar    1  UNL1       -0.0003
     39 C          62.2679   82.4837   13.7664 C.ar    1  UNL1       -0.0043
@<TRIPOS>BOND
     1    16    17    1
     2    17    15    1
     3    15    14    1
     4    14    13    1
     5    13    12    1
     6    12     4    1
     7     4     5   ar
     8     5     6   ar
     9     6     1    1
    10     1     2    2
    11     1     3   am
    12     3    21    1
    13    22    21    1
    14    22    23    1
    15    23    24    1
    16    24    25    1
    17    25    26    1
    18    26    28    1
    19    28    29   am
    20    29    30    2
    21    29    32    1
    22    32    33    1
    23    33    34    1
    24    34    35   ar
    25    35    36   ar
    26    36    37   ar
    27    37    38   ar
    28    38    39   ar
    29     3    18    1
    30    18    19    1
    31    18    20    1
    32     6     7   ar
    33     7     8   ar
    34     8     9   ar
    35     9    10    1
    36    10    11    1
    37     9     4   ar
    38    26    22    1
    39    39    34   ar
    40    24    27    1
    41    28    31    1
@<TRIPOS>MOLECULE
*****
 39 41 0 0 0
SMALL
GASTEIGER

@<TRIPOS>ATOM
      1 C          62.0834   88.4898   10.9456 C.2     1  UNL1        0.2491
      2 O          62.7260   87.3355   10.2354 O.2     1  UNL1       -0.2699
      3 N          60.5982   88.5088   11.1551 N.am    1  UNL1       -0.2776
      4 C          64.3245   90.7248   13.3399 C.ar    1  UNL1        0.1723
      5 C          63.4819   89.5894   12.8391 C.ar    1  UNL1        0.0446
      6 C          62.9259   89.6254   11.4464 C.ar    1  UNL1        0.0568
      7 C          63.2125   90.7968   10.5545 C.ar    1  UNL1        0.0078
      8 C          64.0550   91.9323   11.0553 C.ar    1  UNL1        0.0402
      9 C          64.6110   91.8963   12.4480 C.ar    1  UNL1        0.1724
     10 O          65.4536   93.0318   12.9487 O.3     1  UNL1       -0.4684
     11 C          66.2217   93.8802   11.9791 C.3     1  UNL1        0.2526
     12 O          64.8804   90.6888   14.7326 O.3     1  UNL1       -0.4723
     13 C          64.0476   91.1661   15.8852 C.3     1  UNL1        0.2082
     14 C          63.2325   90.1875   16.6775 C.3     1  UNL1        0.0794
     15 C          63.3836   88.7151   16.4342 C.3     1  UNL1        0.1461
     16 C          62.6743   86.5111   17.6129 C.3     1  UNL1        0.1741
     17 O          62.3094   87.7673   16.8789 O.3     1  UNL1       -0.3510
     18 C          59.9556   89.6632   11.8654 C.3     1  UNL1        0.0757
     19 C          59.6210   89.5544   13.3235 C.3     1  UNL1        0.0215
     20 C          59.6476   90.9264   11.1175 C.3     1  UNL1        0.0215
     21 C          59.7556   87.3733   10.6544 C.3     1  UNL1        0.0967
     22 C          59.8410   86.9530    9.2170 C.3     1  UNL1        0.0549
     23 C          59.0569   87.5370    8.0795 C.3     1  UNL1        0.0720
     24 N          59.4568   86.8198    6.8242 N.3     1  UNL1       -0.2960
     25 C          60.4882   85.7925    7.1860 C.3     1  UNL1        0.0884
     26 C          60.7256   85.8748    8.6648 C.3     1  UNL1        0.0902
     27 H          59.8488   87.4836    6.1563 H       1  UNL1        0.1233
     28 N          61.6802   85.0276    9.4529 N.am    1  UNL1       -0.3045
     29 C          62.9531   84.5468    8.8219 C.2     1  UNL1        0.2228
     30 O          63.2717   84.9132    7.4026 O.2     1  UNL1       -0.2751
     31 H          61.4711   84.7872   10.3844 H       1  UNL1        0.1494
     32 C          63.9076   83.6997    9.6101 C.3     1  UNL1        0.0897
     33 C          63.4064   82.4943   10.3489 C.3     1  UNL1        0.0359
     34 C          63.0427   82.6017   11.8002 C.ar    1  UNL1       -0.0217
     35 C          63.2075   83.9073   12.5200 C.ar    1  UNL1       -0.0043
     36 C          62.8439   84.0148   13.9713 C.ar    1  UNL1       -0.0003
     37 C          62.3154   82.8167   14.7027 C.ar    1  UNL1       -0.0000
     38 C          62.1505   81.5110   13.9829 C.ar    1  UNL1       -0.0003
     39 C          62.5142   81.4035   12.5316 C.ar    1  UNL1       -0.0043
@<TRIPOS>BOND
     1    16    17    1
     2    17    15    1
     3    15    14    1
     4    14    13    1
     5    13    12    1
     6    12     4    1
     7     4     5   ar
     8     5     6   ar
     9     6     1    1
    10     1     2    2
    11     1     3   am
    12     3    21    1
    13    22    21    1
    14    22    23    1
    15    23    24    1
    16    24    25    1
    17    25    26    1
    18    26    28    1
    19    28    29   am
    20    29    30    2
    21    29    32    1
    22    32    33    1
    23    33    34    1
    24    34    35   ar
    25    35    36   ar
    26    36    37   ar
    27    37    38   ar
    28    38    39   ar
    29     3    18    1
    30    18    19    1
    31    18    20    1
    32     6     7   ar
    33     7     8   ar
    34     8     9   ar
    35     9    10    1
    36    10    11    1
    37     9     4   ar
    38    26    22    1
    39    39    34   ar
    40    24    27    1
    41    28    31    1
@<TRIPOS>MOLECULE
*****
 39 41 0 0 0
SMALL
GASTEIGER

@<TRIPOS>ATOM
      1 C          61.6891   89.7812   12.7310 C.2     1  UNL1        0.2491
      2 O          60.5974   89.5626   13.7361 O.2     1  UNL1       -0.2699
      3 N          61.4300   89.5287   11.2753 N.am    1  UNL1       -0.2776
      4 C          64.9463   92.0164   13.1116 C.ar    1  UNL1        0.1723
      5 C          63.5955   91.5451   12.6611 C.ar    1  UNL1        0.0446
      6 C          63.0401   90.2526   13.1816 C.ar    1  UNL1        0.0568
      7 C          63.8355   89.4314   14.1526 C.ar    1  UNL1        0.0078
      8 C          65.1863   89.9027   14.6031 C.ar    1  UNL1        0.0402
      9 C          65.7417   91.1952   14.0826 C.ar    1  UNL1        0.1724
     10 O          67.0927   91.6665   14.5332 O.3     1  UNL1       -0.4684
     11 C          67.2429   92.3589   15.8553 C.3     1  UNL1        0.2526
     12 O          65.5018   93.3089   12.5911 O.3     1  UNL1       -0.4723
     13 C          65.7190   93.4929   11.1185 C.3     1  UNL1        0.2082
     14 C          66.4294   94.7130   10.6118 C.3     1  UNL1        0.0794
     15 C          67.3286   94.6146    9.4151 C.3     1  UNL1        0.1461
     16 C          68.8103   92.4862    9.2592 C.3     1  UNL1        0.1741
     17 O          68.6695   93.9535    9.5370 O.3     1  UNL1       -0.3510
     18 C          62.5218   89.7474   10.2702 C.3     1  UNL1        0.0757
     19 C          63.3450   88.5879    9.7927 C.3     1  UNL1        0.0215
     20 C          62.7905   91.1256    9.7426 C.3     1  UNL1        0.0215
     21 C          60.0792   89.0574   10.8247 C.3     1  UNL1        0.0967
     22 C          59.9472   88.2521    9.5661 C.3     1  UNL1        0.0549
     23 C          59.3046   88.7093    8.2901 C.3     1  UNL1        0.0720
     24 N          59.3948   87.5879    7.2979 N.3     1  UNL1       -0.2960
     25 C          60.0931   86.4377    7.9607 C.3     1  UNL1        0.0884
     26 C          60.4345   86.8481    9.3625 C.3     1  UNL1        0.0902
     27 H          59.9252   87.8905    6.4808 H       1  UNL1        0.1233
     28 N          61.1394   86.0030   10.3817 N.am    1  UNL1       -0.3045
     29 C          62.4040   85.2845   10.0151 C.2     1  UNL1        0.2228
     30 O          62.9638   85.4111    8.6292 O.2     1  UNL1       -0.2751
     31 H          60.7720   85.9199   11.2913 H       1  UNL1        0.1494
     32 C          63.1089   84.4394   11.0344 C.3     1  UNL1        0.0897
     33 C          62.3999   84.0342   12.2926 C.3     1  UNL1        0.0359
     34 C          62.8374   84.5942   13.6136 C.ar    1  UNL1       -0.0217
     35 C          63.9969   85.5435   13.6788 C.ar    1  UNL1       -0.0043
     36 C          64.4345   86.1035   14.9998 C.ar    1  UNL1       -0.0003
     37 C          63.7124   85.7142   16.2556 C.ar    1  UNL1       -0.0000
     38 C          62.5528   84.7648   16.1904 C.ar    1  UNL1       -0.0003
     39 C          62.1153   84.2049   14.8694 C.ar    1  UNL1       -0.0043
@<TRIPOS>BOND
     1    16    17    1
     2    17    15    1
     3    15    14    1
     4    14    13    1
     5    13    12    1
     6    12     4    1
     7     4     5   ar
     8     5     6   ar
     9     6     1    1
    10     1     2    2
    11     1     3   am
    12     3    21    1
    13    22    21    1
    14    22    23    1
    15    23    24    1
    16    24    25    1
    17    25    26    1
    18    26    28    1
    19    28    29   am
    20    29    30    2
    21    29    32    1
    22    32    33    1
    23    33    34    1
    24    34    35   ar
    25    35    36   ar
    26    36    37   ar
    27    37    38   ar
    28    38    39   ar
    29     3    18    1
    30    18    19    1
    31    18    20    1
    32     6     7   ar
    33     7     8   ar
    34     8     9   ar
    35     9    10    1
    36    10    11    1
    37     9     4   ar
    38    26    22    1
    39    39    34   ar
    40    24    27    1
    41    28    31    1
