@<TRIPOS>MOLECULE
*****
 26 28 0 0 0
SMALL
GASTEIGER

@<TRIPOS>ATOM
      1 O          64.5875   82.8872   15.2405 O.3     1  UNL1       -0.3755
      2 C          64.1343   84.0406   14.3954 C.3     1  UNL1        0.1932
      3 H          65.1216   82.2822   14.7023 H       1  UNL1        0.2110
      4 C          63.8161   83.0948   13.2754 C.ar    1  UNL1        0.0368
      5 C          64.5751   83.1789   11.9843 C.ar    1  UNL1        0.0028
      6 C          64.2570   82.2332   10.8643 C.ar    1  UNL1        0.0295
      7 C          63.1800   81.2034   11.0354 C.ar    1  UNL1        0.1424
      8 F          62.8618   80.2576    9.9154 F       1  UNL1       -0.2041
      9 C          62.4210   81.1192   12.3265 C.ar    1  UNL1        0.0590
     10 C          62.7391   82.0649   13.4465 C.ar    1  UNL1        0.1408
     11 F          61.9802   81.9808   14.7376 F       1  UNL1       -0.2043
     12 C          63.6811   85.1939   13.5503 C.3     1  UNL1        0.3254
     13 F          65.0067   85.8651   13.7553 F       1  UNL1       -0.1949
     14 F          62.2850   84.8217   13.1468 F       1  UNL1       -0.1949
     15 C          63.2278   86.3473   12.7051 C.ar    1  UNL1        0.1218
     16 C          62.4293   86.0967   11.4602 C.ar    1  UNL1        0.0202
     17 C          61.9761   87.2500   10.6150 C.ar    1  UNL1        0.0030
     18 C          62.3212   88.6540   11.0147 C.ar    1  UNL1        0.0207
     19 C          63.1196   88.9047   12.2596 C.ar    1  UNL1        0.0987
     20 N          63.5729   87.7513   13.1048 N.ar    1  UNL1       -0.2427
     21 C          64.4524   84.9862   15.5154 C.3     1  UNL1        0.1679
     22 N          63.3538   85.7701   16.1701 N.ar    1  UNL1       -0.2078
     23 C          63.4286   87.2064   16.5959 C.ar    1  UNL1        0.2216
     24 N          62.1085   87.5793   17.2029 N.ar    1  UNL1       -0.1048
     25 N          61.2179   86.3734   17.1521 N.ar    1  UNL1       -0.0226
     26 N          61.9875   85.2553   16.5138 N.ar    1  UNL1       -0.0428
@<TRIPOS>BOND
     1     1     2    1
     2     2    21    1
     3    21    22    1
     4    22    23   ar
     5    23    24   ar
     6    24    25   ar
     7    25    26   ar
     8     2     4    1
     9     4     5   ar
    10     5     6   ar
    11     6     7   ar
    12     7     8    1
    13     7     9   ar
    14     9    10   ar
    15    10    11    1
    16     2    12    1
    17    12    13    1
    18    12    14    1
    19    12    15    1
    20    15    16   ar
    21    16    17   ar
    22    17    18   ar
    23    18    19   ar
    24    19    20   ar
    25    26    22   ar
    26    10     4   ar
    27    20    15   ar
    28     1     3    1
@<TRIPOS>MOLECULE
*****
 26 28 0 0 0
SMALL
GASTEIGER

@<TRIPOS>ATOM
      1 O          64.7207   83.6774   15.2349 O.3     1  UNL1       -0.3755
      2 C          64.0855   84.1708   13.9688 C.3     1  UNL1        0.1932
      3 H          65.0128   82.7603   15.1140 H       1  UNL1        0.2110
      4 C          63.3636   82.8642   13.8218 C.ar    1  UNL1        0.0368
      5 C          63.9124   81.8018   12.9162 C.ar    1  UNL1        0.0028
      6 C          63.1905   80.4952   12.7691 C.ar    1  UNL1        0.0295
      7 C          61.9198   80.2510   13.5278 C.ar    1  UNL1        0.1424
      8 F          61.1978   78.9444   13.3807 F       1  UNL1       -0.2041
      9 C          61.3709   81.3134   14.4334 C.ar    1  UNL1        0.0590
     10 C          62.0928   82.6199   14.5804 C.ar    1  UNL1        0.1408
     11 F          61.5440   83.6823   15.4861 F       1  UNL1       -0.2043
     12 C          63.4504   84.6643   12.7027 C.3     1  UNL1        0.3254
     13 F          64.6469   84.2050   11.9235 F       1  UNL1       -0.1949
     14 F          62.1356   85.2293   13.1525 F       1  UNL1       -0.1949
     15 C          62.8151   85.1578   11.4366 C.ar    1  UNL1        0.1218
     16 C          63.3331   84.6939   10.1074 C.ar    1  UNL1        0.0202
     17 C          62.6979   85.1874    8.8413 C.ar    1  UNL1        0.0030
     18 C          61.5448   86.1447    8.9044 C.ar    1  UNL1        0.0207
     19 C          61.0268   86.6085   10.2335 C.ar    1  UNL1        0.0987
     20 N          61.6621   86.1150   11.4996 N.ar    1  UNL1       -0.2427
     21 C          64.8075   85.4774   14.1159 C.3     1  UNL1        0.1679
     22 N          64.2102   86.5750   14.9456 N.ar    1  UNL1       -0.2078
     23 C          64.3021   88.0449   14.6611 C.ar    1  UNL1        0.2216
     24 N          63.5649   88.7739   15.7451 N.ar    1  UNL1       -0.1048
     25 N          63.0174   87.7546   16.6996 N.ar    1  UNL1       -0.0226
     26 N          63.4162   86.3956   16.2054 N.ar    1  UNL1       -0.0428
@<TRIPOS>BOND
     1     1     2    1
     2     2    21    1
     3    21    22    1
     4    22    23   ar
     5    23    24   ar
     6    24    25   ar
     7    25    26   ar
     8     2     4    1
     9     4     5   ar
    10     5     6   ar
    11     6     7   ar
    12     7     8    1
    13     7     9   ar
    14     9    10   ar
    15    10    11    1
    16     2    12    1
    17    12    13    1
    18    12    14    1
    19    12    15    1
    20    15    16   ar
    21    16    17   ar
    22    17    18   ar
    23    18    19   ar
    24    19    20   ar
    25    26    22   ar
    26    10     4   ar
    27    20    15   ar
    28     1     3    1
@<TRIPOS>MOLECULE
*****
 26 28 0 0 0
SMALL
GASTEIGER

@<TRIPOS>ATOM
      1 O          64.6281   83.6260   15.6022 O.3     1  UNL1       -0.3755
      2 C          63.9903   84.1517   14.3505 C.3     1  UNL1        0.1932
      3 H          64.1315   83.9393   16.3743 H       1  UNL1        0.2110
      4 C          63.8223   85.4935   14.9996 C.ar    1  UNL1        0.0368
      5 C          64.4732   86.7041   14.3989 C.ar    1  UNL1        0.0028
      6 C          64.3052   88.0458   15.0480 C.ar    1  UNL1        0.0295
      7 C          63.4864   88.1771   16.2978 C.ar    1  UNL1        0.1424
      8 F          63.3184   89.5189   16.9470 F       1  UNL1       -0.2041
      9 C          62.8355   86.9665   16.8986 C.ar    1  UNL1        0.0590
     10 C          63.0034   85.6248   16.2495 C.ar    1  UNL1        0.1408
     11 F          62.3525   84.4142   16.8503 F       1  UNL1       -0.2043
     12 C          63.3524   84.6773   13.0988 C.3     1  UNL1        0.3254
     13 F          64.6082   84.3802   12.3341 F       1  UNL1       -0.1949
     14 F          61.9796   85.0928   13.5379 F       1  UNL1       -0.1949
     15 C          62.7145   85.2030   11.8470 C.ar    1  UNL1        0.1218
     16 C          63.1593   84.6942   10.5079 C.ar    1  UNL1        0.0202
     17 C          62.5215   85.2198    9.2562 C.ar    1  UNL1        0.0030
     18 C          61.4388   86.2543    9.3436 C.ar    1  UNL1        0.0207
     19 C          60.9940   86.7632   10.6827 C.ar    1  UNL1        0.0987
     20 N          61.6319   86.2375   11.9344 N.ar    1  UNL1       -0.2427
     21 C          64.1583   82.8099   13.7014 C.3     1  UNL1        0.1679
     22 N          63.0383   81.8128   13.7394 N.ar    1  UNL1       -0.2078
     23 C          63.0631   80.4358   13.1452 C.ar    1  UNL1        0.2216
     24 N          61.7370   79.7896   13.4169 N.ar    1  UNL1       -0.1048
     25 N          60.8925   80.7673   14.1791 N.ar    1  UNL1       -0.0226
     26 N          61.6967   82.0177   14.3784 N.ar    1  UNL1       -0.0428
@<TRIPOS>BOND
     1     1     2    1
     2     2    21    1
     3    21    22    1
     4    22    23   ar
     5    23    24   ar
     6    24    25   ar
     7    25    26   ar
     8     2     4    1
     9     4     5   ar
    10     5     6   ar
    11     6     7   ar
    12     7     8    1
    13     7     9   ar
    14     9    10   ar
    15    10    11    1
    16     2    12    1
    17    12    13    1
    18    12    14    1
    19    12    15    1
    20    15    16   ar
    21    16    17   ar
    22    17    18   ar
    23    18    19   ar
    24    19    20   ar
    25    26    22   ar
    26    10     4   ar
    27    20    15   ar
    28     1     3    1
@<TRIPOS>MOLECULE
*****
 26 28 0 0 0
SMALL
GASTEIGER

@<TRIPOS>ATOM
      1 O          61.1279   88.8363    9.4096 O.3     1  UNL1       -0.3755
      2 C          61.6250   87.7470   10.3131 C.3     1  UNL1        0.1932
      3 H          60.4234   88.4882    8.8409 H       1  UNL1        0.2110
      4 C          61.6022   86.7834    9.1638 C.ar    1  UNL1        0.0368
      5 C          62.8633   86.0892    8.7420 C.ar    1  UNL1        0.0028
      6 C          62.8406   85.1256    7.5927 C.ar    1  UNL1        0.0295
      7 C          61.5569   84.8561    6.8653 C.ar    1  UNL1        0.1424
      8 F          61.5341   83.8924    5.7159 F       1  UNL1       -0.2041
      9 C          60.2958   85.5502    7.2871 C.ar    1  UNL1        0.0590
     10 C          60.3185   86.5138    8.4363 C.ar    1  UNL1        0.1408
     11 F          59.0574   87.2079    8.8581 F       1  UNL1       -0.2043
     12 C          62.1221   86.6578   11.2166 C.3     1  UNL1        0.3254
     13 F          60.9204   85.8271   10.8764 F       1  UNL1       -0.1949
     14 F          63.4085   87.2003   11.7655 F       1  UNL1       -0.1949
     15 C          62.6193   85.5685   12.1202 C.ar    1  UNL1        0.1218
     16 C          62.4959   84.1331   11.7027 C.ar    1  UNL1        0.0202
     17 C          62.9930   83.0438   12.6062 C.ar    1  UNL1        0.0030
     18 C          63.6135   83.3900   13.9273 C.ar    1  UNL1        0.0207
     19 C          63.7369   84.8254   14.3448 C.ar    1  UNL1        0.0987
     20 N          63.2397   85.9147   13.4412 N.ar    1  UNL1       -0.2427
     21 C          61.6477   88.7107   11.4624 C.3     1  UNL1        0.1679
     22 N          62.6338   89.8409   11.4741 N.ar    1  UNL1       -0.2078
     23 C          63.3529   90.3712   12.6789 C.ar    1  UNL1        0.2216
     24 N          64.2375   91.4973   12.2325 N.ar    1  UNL1       -0.1048
     25 N          64.0652   91.6630   10.7516 N.ar    1  UNL1       -0.0226
     26 N          63.0741   90.6393   10.2829 N.ar    1  UNL1       -0.0428
@<TRIPOS>BOND
     1     1     2    1
     2     2    21    1
     3    21    22    1
     4    22    23   ar
     5    23    24   ar
     6    24    25   ar
     7    25    26   ar
     8     2     4    1
     9     4     5   ar
    10     5     6   ar
    11     6     7   ar
    12     7     8    1
    13     7     9   ar
    14     9    10   ar
    15    10    11    1
    16     2    12    1
    17    12    13    1
    18    12    14    1
    19    12    15    1
    20    15    16   ar
    21    16    17   ar
    22    17    18   ar
    23    18    19   ar
    24    19    20   ar
    25    26    22   ar
    26    10     4   ar
    27    20    15   ar
    28     1     3    1
@<TRIPOS>MOLECULE
*****
 26 28 0 0 0
SMALL
GASTEIGER

@<TRIPOS>ATOM
      1 O          64.8393   92.5655   13.3267 O.3     1  UNL1       -0.3755
      2 C          64.5187   91.2705   14.0122 C.3     1  UNL1        0.1932
      3 H          64.0295   92.9380   12.9441 H       1  UNL1        0.2110
      4 C          63.6411   90.8782   12.8607 C.ar    1  UNL1        0.0368
      5 C          62.3335   90.1886   13.1151 C.ar    1  UNL1        0.0028
      6 C          61.4559   89.7963   11.9636 C.ar    1  UNL1        0.0295
      7 C          61.8859   90.0937   10.5577 C.ar    1  UNL1        0.1424
      8 F          61.0083   89.7014    9.4062 F       1  UNL1       -0.2041
      9 C          63.1935   90.7833   10.3033 C.ar    1  UNL1        0.0590
     10 C          64.0711   91.1755   11.4547 C.ar    1  UNL1        0.1408
     11 F          65.3786   91.8651   11.2003 F       1  UNL1       -0.2043
     12 C          64.1980   89.9755   14.6978 C.3     1  UNL1        0.3254
     13 F          63.6491   90.7323   15.8707 F       1  UNL1       -0.1949
     14 F          64.6531   88.9277   13.7255 F       1  UNL1       -0.1949
     15 C          63.8774   88.6803   15.3834 C.ar    1  UNL1        0.1218
     16 C          63.1438   88.6859   16.6917 C.ar    1  UNL1        0.0202
     17 C          62.8232   87.3909   17.3773 C.ar    1  UNL1        0.0030
     18 C          63.2361   86.0902   16.7545 C.ar    1  UNL1        0.0207
     19 C          63.9697   86.0846   15.4461 C.ar    1  UNL1        0.0987
     20 N          64.2904   87.3798   14.7606 N.ar    1  UNL1       -0.2427
     21 C          65.3962   91.6628   15.1637 C.3     1  UNL1        0.1679
     22 N          66.8130   92.0887   14.9159 N.ar    1  UNL1       -0.2078
     23 C          67.6256   92.9986   15.7886 C.ar    1  UNL1        0.2216
     24 N          68.9808   93.1517   15.1639 N.ar    1  UNL1       -0.1048
     25 N          69.0057   92.3363   13.9051 N.ar    1  UNL1       -0.0226
     26 N          67.6659   91.6793   13.7518 N.ar    1  UNL1       -0.0428
@<TRIPOS>BOND
     1     1     2    1
     2     2    21    1
     3    21    22    1
     4    22    23   ar
     5    23    24   ar
     6    24    25   ar
     7    25    26   ar
     8     2     4    1
     9     4     5   ar
    10     5     6   ar
    11     6     7   ar
    12     7     8    1
    13     7     9   ar
    14     9    10   ar
    15    10    11    1
    16     2    12    1
    17    12    13    1
    18    12    14    1
    19    12    15    1
    20    15    16   ar
    21    16    17   ar
    22    17    18   ar
    23    18    19   ar
    24    19    20   ar
    25    26    22   ar
    26    10     4   ar
    27    20    15   ar
    28     1     3    1
@<TRIPOS>MOLECULE
*****
 26 28 0 0 0
SMALL
GASTEIGER

@<TRIPOS>ATOM
      1 O          65.8837   90.3101   15.0795 O.3     1  UNL1       -0.3755
      2 C          64.7317   90.1487   14.1326 C.3     1  UNL1        0.1932
      3 H          66.2343   89.4366   15.3140 H       1  UNL1        0.2110
      4 C          64.2109   89.0111   14.9602 C.ar    1  UNL1        0.0368
      5 C          64.4674   87.5956   14.5354 C.ar    1  UNL1        0.0028
      6 C          63.9467   86.4581   15.3630 C.ar    1  UNL1        0.0295
      7 C          63.1694   86.7361   16.6153 C.ar    1  UNL1        0.1424
      8 F          62.6486   85.5986   17.4430 F       1  UNL1       -0.2041
      9 C          62.9129   88.1517   17.0402 C.ar    1  UNL1        0.0590
     10 C          63.4336   89.2892   16.2126 C.ar    1  UNL1        0.1408
     11 F          63.1771   90.7047   16.6375 F       1  UNL1       -0.2043
     12 C          63.5796   89.9872   13.1857 C.3     1  UNL1        0.3254
     13 F          63.0358   91.3156   13.6209 F       1  UNL1       -0.1949
     14 F          63.8286   88.6591   12.5343 F       1  UNL1       -0.1949
     15 C          62.4276   89.8257   12.2387 C.ar    1  UNL1        0.1218
     16 C          62.6673   89.8319   10.7580 C.ar    1  UNL1        0.0202
     17 C          61.5153   89.6704    9.8110 C.ar    1  UNL1        0.0030
     18 C          60.1235   89.5026   10.3447 C.ar    1  UNL1        0.0207
     19 C          59.8838   89.4964   11.8254 C.ar    1  UNL1        0.0987
     20 N          61.0358   89.6579   12.7724 N.ar    1  UNL1       -0.2427
     21 C          65.2525   91.2861   13.3051 C.3     1  UNL1        0.1679
     22 N          66.4436   92.0693   13.7718 N.ar    1  UNL1       -0.2078
     23 C          66.4084   93.4036   14.4562 C.ar    1  UNL1        0.2216
     24 N          67.8221   93.8147   14.7434 N.ar    1  UNL1       -0.1048
     25 N          68.7310   92.7345   14.2365 N.ar    1  UNL1       -0.0226
     26 N          67.8790   91.6558   13.6359 N.ar    1  UNL1       -0.0428
@<TRIPOS>BOND
     1     1     2    1
     2     2    21    1
     3    21    22    1
     4    22    23   ar
     5    23    24   ar
     6    24    25   ar
     7    25    26   ar
     8     2     4    1
     9     4     5   ar
    10     5     6   ar
    11     6     7   ar
    12     7     8    1
    13     7     9   ar
    14     9    10   ar
    15    10    11    1
    16     2    12    1
    17    12    13    1
    18    12    14    1
    19    12    15    1
    20    15    16   ar
    21    16    17   ar
    22    17    18   ar
    23    18    19   ar
    24    19    20   ar
    25    26    22   ar
    26    10     4   ar
    27    20    15   ar
    28     1     3    1
@<TRIPOS>MOLECULE
*****
 26 28 0 0 0
SMALL
GASTEIGER

@<TRIPOS>ATOM
      1 O          64.4505   83.8058   14.6954 O.3     1  UNL1       -0.3755
      2 C          63.6927   84.4696   13.5841 C.3     1  UNL1        0.1932
      3 H          65.0161   83.1080   14.3293 H       1  UNL1        0.2110
      4 C          63.4181   83.1287   12.9704 C.ar    1  UNL1        0.0368
      5 C          62.4705   82.1776   13.6394 C.ar    1  UNL1        0.0028
      6 C          62.1959   80.8367   13.0258 C.ar    1  UNL1        0.0295
      7 C          62.8689   80.4469   11.7433 C.ar    1  UNL1        0.1424
      8 F          62.5943   79.1059   11.1296 F       1  UNL1       -0.2041
      9 C          63.8165   81.3979   11.0742 C.ar    1  UNL1        0.0590
     10 C          64.0911   82.7388   11.6878 C.ar    1  UNL1        0.1408
     11 F          65.0387   83.6899   11.0188 F       1  UNL1       -0.2043
     12 C          62.9350   85.1335   12.4727 C.3     1  UNL1        0.3254
     13 F          62.1212   83.8877   12.2835 F       1  UNL1       -0.1949
     14 F          63.5413   86.5029   12.3874 F       1  UNL1       -0.1949
     15 C          62.1773   85.7973   11.3613 C.ar    1  UNL1        0.1218
     16 C          62.4580   85.4255    9.9355 C.ar    1  UNL1        0.0202
     17 C          61.7004   86.0893    8.8241 C.ar    1  UNL1        0.0030
     18 C          60.6618   87.1250    9.1385 C.ar    1  UNL1        0.0207
     19 C          60.3810   87.4969   10.5643 C.ar    1  UNL1        0.0987
     20 N          61.1388   86.8330   11.6757 N.ar    1  UNL1       -0.2427
     21 C          63.9674   85.8105   14.1977 C.3     1  UNL1        0.1679
     22 N          63.3735   86.1616   15.5297 N.ar    1  UNL1       -0.2078
     23 C          63.6059   87.4328   16.2912 C.ar    1  UNL1        0.2216
     24 N          62.8190   87.3600   17.5661 N.ar    1  UNL1       -0.1048
     25 N          62.1003   86.0436   17.5926 N.ar    1  UNL1       -0.0226
     26 N          62.4430   85.3030   16.3340 N.ar    1  UNL1       -0.0428
@<TRIPOS>BOND
     1     1     2    1
     2     2    21    1
     3    21    22    1
     4    22    23   ar
     5    23    24   ar
     6    24    25   ar
     7    25    26   ar
     8     2     4    1
     9     4     5   ar
    10     5     6   ar
    11     6     7   ar
    12     7     8    1
    13     7     9   ar
    14     9    10   ar
    15    10    11    1
    16     2    12    1
    17    12    13    1
    18    12    14    1
    19    12    15    1
    20    15    16   ar
    21    16    17   ar
    22    17    18   ar
    23    18    19   ar
    24    19    20   ar
    25    26    22   ar
    26    10     4   ar
    27    20    15   ar
    28     1     3    1
@<TRIPOS>MOLECULE
*****
 26 28 0 0 0
SMALL
GASTEIGER

@<TRIPOS>ATOM
      1 O          62.8210   89.0360   11.4013 O.3     1  UNL1       -0.3755
      2 C          62.7465   87.6106   11.8623 C.3     1  UNL1        0.1932
      3 H          61.9423   89.3291   11.1135 H       1  UNL1        0.2110
      4 C          61.8761   87.2761   10.6873 C.ar    1  UNL1        0.0368
      5 C          62.4348   86.4865    9.5408 C.ar    1  UNL1        0.0028
      6 C          61.5645   86.1520    8.3658 C.ar    1  UNL1        0.0295
      7 C          60.1355   86.6071    8.3374 C.ar    1  UNL1        0.1424
      8 F          59.2651   86.2726    7.1623 F       1  UNL1       -0.2041
      9 C          59.5768   87.3967    9.4838 C.ar    1  UNL1        0.0590
     10 C          60.4472   87.7312   10.6588 C.ar    1  UNL1        0.1408
     11 F          59.8885   88.5208   11.8053 F       1  UNL1       -0.2043
     12 C          62.6721   86.1852   12.3233 C.3     1  UNL1        0.3254
     13 F          63.9735   86.3523   13.0502 F       1  UNL1       -0.1949
     14 F          61.3913   85.6781   11.7295 F       1  UNL1       -0.1949
     15 C          62.5976   84.7597   12.7843 C.ar    1  UNL1        0.1218
     16 C          62.6891   83.6431   11.7869 C.ar    1  UNL1        0.0202
     17 C          62.6146   82.2177   12.2478 C.ar    1  UNL1        0.0030
     18 C          62.4486   81.9087   13.7063 C.ar    1  UNL1        0.0207
     19 C          62.3571   83.0253   14.7037 C.ar    1  UNL1        0.0987
     20 N          62.4316   84.4508   14.2427 N.ar    1  UNL1       -0.2427
     21 C          63.6169   87.9452   13.0372 C.3     1  UNL1        0.1679
     22 N          63.7147   89.3624   13.5188 N.ar    1  UNL1       -0.2078
     23 C          63.3199   89.8613   14.8771 C.ar    1  UNL1        0.2216
     24 N          63.5857   91.3368   14.9244 N.ar    1  UNL1       -0.1048
     25 N          64.1448   91.7498   13.5951 N.ar    1  UNL1       -0.0226
     26 N          64.2246   90.5296   12.7265 N.ar    1  UNL1       -0.0428
@<TRIPOS>BOND
     1     1     2    1
     2     2    21    1
     3    21    22    1
     4    22    23   ar
     5    23    24   ar
     6    24    25   ar
     7    25    26   ar
     8     2     4    1
     9     4     5   ar
    10     5     6   ar
    11     6     7   ar
    12     7     8    1
    13     7     9   ar
    14     9    10   ar
    15    10    11    1
    16     2    12    1
    17    12    13    1
    18    12    14    1
    19    12    15    1
    20    15    16   ar
    21    16    17   ar
    22    17    18   ar
    23    18    19   ar
    24    19    20   ar
    25    26    22   ar
    26    10     4   ar
    27    20    15   ar
    28     1     3    1
@<TRIPOS>MOLECULE
*****
 26 28 0 0 0
SMALL
GASTEIGER

@<TRIPOS>ATOM
      1 O          62.3340   84.1157   11.5361 O.3     1  UNL1       -0.3755
      2 C          62.7242   85.5024   11.9543 C.3     1  UNL1        0.1932
      3 H          62.4006   84.0381   10.5715 H       1  UNL1        0.2110
      4 C          61.9340   86.0692   10.8121 C.ar    1  UNL1        0.0368
      5 C          60.7391   86.9344   11.0832 C.ar    1  UNL1        0.0028
      6 C          59.9490   87.5012    9.9412 C.ar    1  UNL1        0.0295
      7 C          60.3537   87.2028    8.5280 C.ar    1  UNL1        0.1424
      8 F          59.5635   87.7696    7.3859 F       1  UNL1       -0.2041
      9 C          61.5487   86.3375    8.2569 C.ar    1  UNL1        0.0590
     10 C          62.3388   85.7707    9.3990 C.ar    1  UNL1        0.1408
     11 F          63.5337   84.9055    9.1279 F       1  UNL1       -0.2043
     12 C          63.1145   86.8890   12.3725 C.3     1  UNL1        0.3254
     13 F          63.4016   86.3904   13.7577 F       1  UNL1       -0.1949
     14 F          62.9303   87.7083   11.1295 F       1  UNL1       -0.1949
     15 C          63.5048   88.2757   12.7907 C.ar    1  UNL1        0.1218
     16 C          64.2318   88.4921   14.0847 C.ar    1  UNL1        0.0202
     17 C          64.6221   89.8787   14.5029 C.ar    1  UNL1        0.0030
     18 C          64.2853   91.0490   13.6270 C.ar    1  UNL1        0.0207
     19 C          63.5582   90.8326   12.3330 C.ar    1  UNL1        0.0987
     20 N          63.1679   89.4459   11.9148 N.ar    1  UNL1       -0.2427
     21 C          63.5143   84.9355   13.0964 C.3     1  UNL1        0.1679
     22 N          63.4038   83.4784   13.4347 N.ar    1  UNL1       -0.2078
     23 C          62.5323   82.8845   14.5013 C.ar    1  UNL1        0.2216
     24 N          62.7353   81.3983   14.4916 N.ar    1  UNL1       -0.1048
     25 N          63.7323   81.0737   13.4189 N.ar    1  UNL1       -0.0226
     26 N          64.1455   82.3592   12.7657 N.ar    1  UNL1       -0.0428
@<TRIPOS>BOND
     1     1     2    1
     2     2    21    1
     3    21    22    1
     4    22    23   ar
     5    23    24   ar
     6    24    25   ar
     7    25    26   ar
     8     2     4    1
     9     4     5   ar
    10     5     6   ar
    11     6     7   ar
    12     7     8    1
    13     7     9   ar
    14     9    10   ar
    15    10    11    1
    16     2    12    1
    17    12    13    1
    18    12    14    1
    19    12    15    1
    20    15    16   ar
    21    16    17   ar
    22    17    18   ar
    23    18    19   ar
    24    19    20   ar
    25    26    22   ar
    26    10     4   ar
    27    20    15   ar
    28     1     3    1
