@<TRIPOS>MOLECULE
*****
 34 37 0 0 0
SMALL
GASTEIGER

@<TRIPOS>ATOM
      1 N          62.9448   90.7255   11.4714 N.am    1  UNL1       -0.2438
      2 C          63.5650   91.3382   10.2508 C.3     1  UNL1        0.1009
      3 C          64.7265   92.2771   10.3906 C.3     1  UNL1        0.0661
      4 C          65.2678   92.6031   11.7510 C.3     1  UNL1        0.1578
      5 O          64.6476   91.9903   12.9716 O.3     1  UNL1       -0.4375
      6 C          63.4861   91.0515   12.8318 C.2     1  UNL1        0.4051
      7 O          62.8659   90.4388   14.0524 O.2     1  UNL1       -0.2262
      8 C          66.1869   93.4287   10.9002 C.ar    1  UNL1        0.0137
      9 C          66.0275   94.9194   10.8523 C.ar    1  UNL1       -0.0010
     10 C          66.9466   95.7450   10.0016 C.ar    1  UNL1       -0.0002
     11 C          68.0249   95.0798    9.1987 C.ar    1  UNL1       -0.0000
     12 C          68.1843   93.5891    9.2465 C.ar    1  UNL1       -0.0002
     13 C          67.2652   92.7635   10.0973 C.ar    1  UNL1       -0.0010
     14 C          61.7833   89.7867   11.3316 C.3     1  UNL1        0.1010
     15 C          61.9854   88.3113   11.5125 C.ar    1  UNL1       -0.0042
     16 C          63.0559   87.8086   12.4351 C.ar    1  UNL1       -0.0027
     17 C          63.2579   86.3333   12.6159 C.ar    1  UNL1       -0.0003
     18 C          62.3895   85.3608   11.8742 C.ar    1  UNL1       -0.0000
     19 C          61.3191   85.8636   10.9515 C.ar    1  UNL1       -0.0003
     20 C          61.1170   87.3389   10.7707 C.ar    1  UNL1       -0.0027
     21 C          62.5917   83.8855   12.0550 C.ar    1  UNL1        0.0001
     22 C          62.9972   83.0354   10.8877 C.ar    1  UNL1        0.0023
     23 C          63.1994   81.5601   11.0686 C.ar    1  UNL1        0.0296
     24 C          62.9959   80.9350   12.4168 C.ar    1  UNL1        0.1401
     25 F          63.1980   79.4597   12.5977 F       1  UNL1       -0.2042
     26 C          62.5903   81.7852   13.5842 C.ar    1  UNL1        0.0296
     27 C          62.3882   83.2604   13.4033 C.ar    1  UNL1        0.0023
     28 C          59.2967   90.1512   11.9905 C.3     1  UNL1        0.0021
     29 C          60.4197   90.3231   11.0110 C.3     1  UNL1        0.0245
     30 C          66.1283   93.2159   12.8159 C.3     1  UNL1        0.0471
     31 C          66.5968   92.3837   13.9726 C.3     1  UNL1        0.0357
     32 C          68.0633   92.1465   14.1806 C.3     1  UNL1        0.1373
     33 O          68.9143   91.6672   13.0422 O.3     1  UNL1       -0.3820
     34 H          68.6396   90.7725   12.7874 H       1  UNL1        0.2104
@<TRIPOS>BOND
     1    28    29    1
     2    14    29    1
     3    14    15    1
     4    15    16   ar
     5    16    17   ar
     6    17    18   ar
     7    18    21    1
     8    21    22   ar
     9    22    23   ar
    10    23    24   ar
    11    24    25    1
    12    24    26   ar
    13    26    27   ar
    14    18    19   ar
    15    19    20   ar
    16    14     1    1
    17     1     2    1
    18     2     3    1
    19     3     4    1
    20     4    30    1
    21    30    31    1
    22    31    32    1
    23    32    33    1
    24     4     8    1
    25     8     9   ar
    26     9    10   ar
    27    10    11   ar
    28    11    12   ar
    29    12    13   ar
    30     4     5    1
    31     5     6    1
    32     6     7    2
    33    20    15   ar
    34     6     1   am
    35    27    21   ar
    36    13     8   ar
    37    33    34    1
@<TRIPOS>MOLECULE
*****
 34 37 0 0 0
SMALL
GASTEIGER

@<TRIPOS>ATOM
      1 N          63.3171   90.3521   11.9354 N.am    1  UNL1       -0.2438
      2 C          63.9531   90.1581   13.2799 C.3     1  UNL1        0.1009
      3 C          65.1091   91.0195   13.6942 C.3     1  UNL1        0.0661
      4 C          65.6291   92.0750   12.7638 C.3     1  UNL1        0.1578
      5 O          64.9932   92.2690   11.4192 O.3     1  UNL1       -0.4375
      6 C          63.8371   91.4076   11.0050 C.2     1  UNL1        0.4051
      7 O          63.2012   91.6016    9.6604 O.2     1  UNL1       -0.2262
      8 C          66.5577   92.2712   13.9254 C.ar    1  UNL1        0.0137
      9 C          66.0050   92.6047   15.2794 C.ar    1  UNL1       -0.0010
     10 C          66.9336   92.8009   16.4410 C.ar    1  UNL1       -0.0002
     11 C          68.4149   92.6636   16.2485 C.ar    1  UNL1       -0.0000
     12 C          68.9676   92.3300   14.8945 C.ar    1  UNL1       -0.0002
     13 C          68.0390   92.1338   13.7329 C.ar    1  UNL1       -0.0010
     14 C          62.1611   89.4907   11.5212 C.3     1  UNL1        0.1010
     15 C          62.2730   87.9969   11.5994 C.ar    1  UNL1       -0.0042
     16 C          61.5181   87.1364   10.6300 C.ar    1  UNL1       -0.0027
     17 C          61.6301   85.6427   10.7082 C.ar    1  UNL1       -0.0003
     18 C          62.4970   85.0094   11.7558 C.ar    1  UNL1       -0.0000
     19 C          63.2519   85.8699   12.7252 C.ar    1  UNL1       -0.0003
     20 C          63.1399   87.3636   12.6470 C.ar    1  UNL1       -0.0027
     21 C          62.6090   83.5156   11.8340 C.ar    1  UNL1        0.0001
     22 C          62.2738   82.8042   13.1113 C.ar    1  UNL1        0.0023
     23 C          62.3858   81.3104   13.1895 C.ar    1  UNL1        0.0296
     24 C          62.8329   80.5280   11.9903 C.ar    1  UNL1        0.1401
     25 F          62.9449   79.0343   12.0685 F       1  UNL1       -0.2042
     26 C          63.1681   81.2395   10.7130 C.ar    1  UNL1        0.0296
     27 C          63.0561   82.7332   10.6348 C.ar    1  UNL1        0.0023
     28 C          59.6365   90.0147   11.8408 C.3     1  UNL1        0.0021
     29 C          60.8932   90.1230   11.0288 C.3     1  UNL1        0.0245
     30 C          66.4717   93.1986   12.2369 C.3     1  UNL1        0.0471
     31 C          65.9221   94.1206   11.1892 C.3     1  UNL1        0.0357
     32 C          66.3543   95.5566   11.1523 C.3     1  UNL1        0.1373
     33 O          65.4354   96.6295   11.6565 O.3     1  UNL1       -0.3820
     34 H          64.6535   96.6806   11.0847 H       1  UNL1        0.2104
@<TRIPOS>BOND
     1    28    29    1
     2    14    29    1
     3    14    15    1
     4    15    16   ar
     5    16    17   ar
     6    17    18   ar
     7    18    21    1
     8    21    22   ar
     9    22    23   ar
    10    23    24   ar
    11    24    25    1
    12    24    26   ar
    13    26    27   ar
    14    18    19   ar
    15    19    20   ar
    16    14     1    1
    17     1     2    1
    18     2     3    1
    19     3     4    1
    20     4    30    1
    21    30    31    1
    22    31    32    1
    23    32    33    1
    24     4     8    1
    25     8     9   ar
    26     9    10   ar
    27    10    11   ar
    28    11    12   ar
    29    12    13   ar
    30     4     5    1
    31     5     6    1
    32     6     7    2
    33    20    15   ar
    34     6     1   am
    35    27    21   ar
    36    13     8   ar
    37    33    34    1
@<TRIPOS>MOLECULE
*****
 34 37 0 0 0
SMALL
GASTEIGER

@<TRIPOS>ATOM
      1 N          62.1241   88.3090   11.2485 N.am    1  UNL1       -0.2438
      2 C          62.6518   87.2277   12.1443 C.3     1  UNL1        0.1009
      3 C          62.7868   85.8257   11.6283 C.3     1  UNL1        0.0661
      4 C          62.3943   85.5051   10.2165 C.3     1  UNL1        0.1578
      5 O          61.8666   86.5864    9.3207 O.3     1  UNL1       -0.4375
      6 C          61.7316   87.9884    9.8367 C.2     1  UNL1        0.4051
      7 O          61.2040   89.0697    8.9410 O.2     1  UNL1       -0.2262
      8 C          62.8393   84.1488   10.6776 C.ar    1  UNL1        0.0137
      9 C          62.2818   83.5665   11.9425 C.ar    1  UNL1       -0.0010
     10 C          62.7268   82.2102   12.4036 C.ar    1  UNL1       -0.0002
     11 C          63.7292   81.4363   11.5997 C.ar    1  UNL1       -0.0000
     12 C          64.2866   82.0186   10.3347 C.ar    1  UNL1       -0.0002
     13 C          63.8416   83.3749    9.8736 C.ar    1  UNL1       -0.0010
     14 C          61.9891   89.7109   11.7646 C.3     1  UNL1        0.1010
     15 C          63.1436   90.3683   12.4610 C.ar    1  UNL1       -0.0042
     16 C          63.9802   91.3797   11.7350 C.ar    1  UNL1       -0.0027
     17 C          65.1347   92.0370   12.4314 C.ar    1  UNL1       -0.0003
     18 C          65.4526   91.6829   13.8539 C.ar    1  UNL1       -0.0000
     19 C          64.6161   90.6714   14.5799 C.ar    1  UNL1       -0.0003
     20 C          63.4616   90.0142   13.8835 C.ar    1  UNL1       -0.0027
     21 C          66.6072   92.3402   14.5503 C.ar    1  UNL1        0.0001
     22 C          66.7917   93.8259   14.4576 C.ar    1  UNL1        0.0023
     23 C          67.9462   94.4833   15.1541 C.ar    1  UNL1        0.0296
     24 C          68.9163   93.6548   15.9432 C.ar    1  UNL1        0.1401
     25 F          70.0708   94.3121   16.6396 F       1  UNL1       -0.2042
     26 C          68.7318   92.1691   16.0359 C.ar    1  UNL1        0.0296
     27 C          67.5773   91.5118   15.3394 C.ar    1  UNL1        0.0023
     28 C          59.4034   89.8208   11.9932 C.3     1  UNL1        0.0021
     29 C          60.6995   90.4556   11.5842 C.3     1  UNL1        0.0245
     30 C          62.1563   84.7134    8.9648 C.3     1  UNL1        0.0471
     31 C          62.3420   85.3578    7.6231 C.3     1  UNL1        0.0357
     32 C          62.2142   84.5382    6.3733 C.3     1  UNL1        0.1373
     33 O          60.8582   84.1252    5.8827 O.3     1  UNL1       -0.3820
     34 H          60.4563   83.5138    6.5196 H       1  UNL1        0.2104
@<TRIPOS>BOND
     1    28    29    1
     2    14    29    1
     3    14    15    1
     4    15    16   ar
     5    16    17   ar
     6    17    18   ar
     7    18    21    1
     8    21    22   ar
     9    22    23   ar
    10    23    24   ar
    11    24    25    1
    12    24    26   ar
    13    26    27   ar
    14    18    19   ar
    15    19    20   ar
    16    14     1    1
    17     1     2    1
    18     2     3    1
    19     3     4    1
    20     4    30    1
    21    30    31    1
    22    31    32    1
    23    32    33    1
    24     4     8    1
    25     8     9   ar
    26     9    10   ar
    27    10    11   ar
    28    11    12   ar
    29    12    13   ar
    30     4     5    1
    31     5     6    1
    32     6     7    2
    33    20    15   ar
    34     6     1   am
    35    27    21   ar
    36    13     8   ar
    37    33    34    1
@<TRIPOS>MOLECULE
*****
 34 37 0 0 0
SMALL
GASTEIGER

@<TRIPOS>ATOM
      1 N          62.6087   87.9154   12.4911 N.am    1  UNL1       -0.2438
      2 C          62.2400   86.8969   11.4536 C.3     1  UNL1        0.1009
      3 C          62.7384   85.4874   11.5759 C.3     1  UNL1        0.0661
      4 C          63.6054   85.0964   12.7358 C.3     1  UNL1        0.1578
      5 O          63.9741   86.1150   13.7735 O.3     1  UNL1       -0.4375
      6 C          63.4757   87.5245   13.6511 C.2     1  UNL1        0.4051
      7 O          63.8444   88.5431   14.6887 O.2     1  UNL1       -0.2262
      8 C          63.5286   83.7838   12.0140 C.ar    1  UNL1        0.0137
      9 C          64.2851   83.5864   10.7339 C.ar    1  UNL1       -0.0010
     10 C          64.2083   82.2737   10.0120 C.ar    1  UNL1       -0.0002
     11 C          63.3749   81.1585   10.5704 C.ar    1  UNL1       -0.0000
     12 C          62.6184   81.3558   11.8505 C.ar    1  UNL1       -0.0002
     13 C          62.6952   82.6685   12.5723 C.ar    1  UNL1       -0.0010
     14 C          62.1103   89.3249   12.3688 C.3     1  UNL1        0.1010
     15 C          63.0215   90.4008   11.8566 C.ar    1  UNL1       -0.0042
     16 C          62.8855   90.8897   10.4451 C.ar    1  UNL1       -0.0027
     17 C          63.7967   91.9655    9.9329 C.ar    1  UNL1       -0.0003
     18 C          64.8438   92.5524   10.8323 C.ar    1  UNL1       -0.0000
     19 C          64.9798   92.0636   12.2439 C.ar    1  UNL1       -0.0003
     20 C          64.0687   90.9878   12.7560 C.ar    1  UNL1       -0.0027
     21 C          65.7550   93.6283   10.3201 C.ar    1  UNL1        0.0001
     22 C          65.3583   95.0695   10.4449 C.ar    1  UNL1        0.0023
     23 C          66.2695   96.1454    9.9327 C.ar    1  UNL1        0.0296
     24 C          67.5774   95.7800    9.2957 C.ar    1  UNL1        0.1401
     25 F          68.4886   96.8558    8.7835 F       1  UNL1       -0.2042
     26 C          67.9742   94.3388    9.1709 C.ar    1  UNL1        0.0296
     27 C          67.0630   93.2630    9.6831 C.ar    1  UNL1        0.0023
     28 C          59.6411   89.7855   11.7046 C.3     1  UNL1        0.0021
     29 C          60.7008   89.6586   12.7587 C.3     1  UNL1        0.0245
     30 C          64.4458   84.2496   13.6451 C.3     1  UNL1        0.0471
     31 C          64.2779   84.3512   15.1321 C.3     1  UNL1        0.0357
     32 C          62.9415   84.0785   15.7565 C.3     1  UNL1        0.1373
     33 O          61.9415   85.1870   15.9018 O.3     1  UNL1       -0.3820
     34 H          62.2801   85.8483   16.5254 H       1  UNL1        0.2104
@<TRIPOS>BOND
     1    28    29    1
     2    14    29    1
     3    14    15    1
     4    15    16   ar
     5    16    17   ar
     6    17    18   ar
     7    18    21    1
     8    21    22   ar
     9    22    23   ar
    10    23    24   ar
    11    24    25    1
    12    24    26   ar
    13    26    27   ar
    14    18    19   ar
    15    19    20   ar
    16    14     1    1
    17     1     2    1
    18     2     3    1
    19     3     4    1
    20     4    30    1
    21    30    31    1
    22    31    32    1
    23    32    33    1
    24     4     8    1
    25     8     9   ar
    26     9    10   ar
    27    10    11   ar
    28    11    12   ar
    29    12    13   ar
    30     4     5    1
    31     5     6    1
    32     6     7    2
    33    20    15   ar
    34     6     1   am
    35    27    21   ar
    36    13     8   ar
    37    33    34    1
@<TRIPOS>MOLECULE
*****
 34 37 0 0 0
SMALL
GASTEIGER

@<TRIPOS>ATOM
      1 N          64.4676   90.4511   14.5222 N.am    1  UNL1       -0.2438
      2 C          64.7440   90.5081   13.0491 C.3     1  UNL1        0.1009
      3 C          65.5027   91.6666   12.4726 C.3     1  UNL1        0.0661
      4 C          65.9849   92.7681   13.3694 C.3     1  UNL1        0.1578
      5 O          65.7084   92.7111   14.8426 O.3     1  UNL1       -0.4375
      6 C          64.9498   91.5526   15.4191 C.2     1  UNL1        0.4051
      7 O          64.6733   91.4956   16.8922 O.2     1  UNL1       -0.2262
      8 C          66.4898   93.2679   12.0482 C.ar    1  UNL1        0.0137
      9 C          67.2772   92.3575   11.1532 C.ar    1  UNL1       -0.0010
     10 C          67.7821   92.8573    9.8320 C.ar    1  UNL1       -0.0002
     11 C          67.4995   94.2675    9.4061 C.ar    1  UNL1       -0.0000
     12 C          66.7121   95.1779   10.3011 C.ar    1  UNL1       -0.0002
     13 C          66.2072   94.6781   11.6223 C.ar    1  UNL1       -0.0010
     14 C          63.7089   89.2926   15.0987 C.3     1  UNL1        0.1010
     15 C          63.6452   87.9923   14.3534 C.ar    1  UNL1       -0.0042
     16 C          63.0513   87.9452   12.9768 C.ar    1  UNL1       -0.0027
     17 C          62.9877   86.6450   12.2316 C.ar    1  UNL1       -0.0003
     18 C          63.5180   85.3919   12.8630 C.ar    1  UNL1       -0.0000
     19 C          64.1119   85.4391   14.2396 C.ar    1  UNL1       -0.0003
     20 C          64.1755   86.7393   14.9848 C.ar    1  UNL1       -0.0027
     21 C          63.4543   84.0917   12.1177 C.ar    1  UNL1        0.0001
     22 C          64.1319   83.9564   10.7864 C.ar    1  UNL1        0.0023
     23 C          64.0683   82.6561   10.0411 C.ar    1  UNL1        0.0296
     24 C          63.3270   81.4912   10.6272 C.ar    1  UNL1        0.1401
     25 F          63.2634   80.1910    9.8820 F       1  UNL1       -0.2042
     26 C          62.6494   81.6266   11.9586 C.ar    1  UNL1        0.0296
     27 C          62.7131   82.9268   12.7038 C.ar    1  UNL1        0.0023
     28 C          62.9569   88.2715   17.3663 C.3     1  UNL1        0.0021
     29 C          63.0138   89.4343   16.4203 C.3     1  UNL1        0.0245
     30 C          66.6425   94.0432   13.8073 C.3     1  UNL1        0.0471
     31 C          67.5578   94.0454   14.9956 C.3     1  UNL1        0.0357
     32 C          68.7079   93.0844   15.0582 C.3     1  UNL1        0.1373
     33 O          68.4586   91.6346   15.3517 O.3     1  UNL1       -0.3820
     34 H          68.1197   91.5414   16.2558 H       1  UNL1        0.2104
@<TRIPOS>BOND
     1    28    29    1
     2    14    29    1
     3    14    15    1
     4    15    16   ar
     5    16    17   ar
     6    17    18   ar
     7    18    21    1
     8    21    22   ar
     9    22    23   ar
    10    23    24   ar
    11    24    25    1
    12    24    26   ar
    13    26    27   ar
    14    18    19   ar
    15    19    20   ar
    16    14     1    1
    17     1     2    1
    18     2     3    1
    19     3     4    1
    20     4    30    1
    21    30    31    1
    22    31    32    1
    23    32    33    1
    24     4     8    1
    25     8     9   ar
    26     9    10   ar
    27    10    11   ar
    28    11    12   ar
    29    12    13   ar
    30     4     5    1
    31     5     6    1
    32     6     7    2
    33    20    15   ar
    34     6     1   am
    35    27    21   ar
    36    13     8   ar
    37    33    34    1
@<TRIPOS>MOLECULE
*****
 34 37 0 0 0
SMALL
GASTEIGER

@<TRIPOS>ATOM
      1 N          61.9971   88.2355   10.9809 N.am    1  UNL1       -0.2438
      2 C          61.4811   88.1995    9.5730 C.3     1  UNL1        0.1009
      3 C          61.6667   86.9677    8.7374 C.3     1  UNL1        0.0661
      4 C          62.3683   85.7718    9.3098 C.3     1  UNL1        0.1578
      5 O          62.8844   85.8078   10.7178 O.3     1  UNL1       -0.4375
      6 C          62.6988   87.0396   11.5534 C.2     1  UNL1        0.4051
      7 O          63.2148   87.0756   12.9613 O.2     1  UNL1       -0.2262
      8 C          62.0586   85.2586    7.9347 C.ar    1  UNL1        0.0137
      9 C          63.1630   84.7431    7.0603 C.ar    1  UNL1       -0.0010
     10 C          62.8533   84.2299    5.6852 C.ar    1  UNL1       -0.0002
     11 C          61.4393   84.2323    5.1847 C.ar    1  UNL1       -0.0000
     12 C          60.3349   84.7478    6.0591 C.ar    1  UNL1       -0.0002
     13 C          60.6446   85.2610    7.4342 C.ar    1  UNL1       -0.0010
     14 C          61.8115   89.4673   11.8165 C.3     1  UNL1        0.1010
     15 C          62.9954   90.1141   12.4723 C.ar    1  UNL1       -0.0042
     16 C          63.8501   91.0736   11.6986 C.ar    1  UNL1       -0.0027
     17 C          65.0339   91.7203   12.3544 C.ar    1  UNL1       -0.0003
     18 C          65.3630   91.4076   13.7841 C.ar    1  UNL1       -0.0000
     19 C          64.5083   90.4481   14.5578 C.ar    1  UNL1       -0.0003
     20 C          63.3245   89.8014   13.9020 C.ar    1  UNL1       -0.0027
     21 C          66.5470   92.0544   14.4399 C.ar    1  UNL1        0.0001
     22 C          67.8956   91.9876   13.7867 C.ar    1  UNL1        0.0023
     23 C          69.0795   92.6344   14.4426 C.ar    1  UNL1        0.0296
     24 C          68.9147   93.3480   15.7516 C.ar    1  UNL1        0.1401
     25 F          70.0985   93.9948   16.4075 F       1  UNL1       -0.2042
     26 C          67.5660   93.4148   16.4048 C.ar    1  UNL1        0.0296
     27 C          66.3822   92.7680   15.7490 C.ar    1  UNL1        0.0023
     28 C          59.2880   89.1637   12.3553 C.3     1  UNL1        0.0021
     29 C          60.4420   90.0523   11.9962 C.3     1  UNL1        0.0245
     30 C          62.9624   84.3977    9.4046 C.3     1  UNL1        0.0471
     31 C          63.3882   83.8550   10.7366 C.3     1  UNL1        0.0357
     32 C          64.2815   82.6519   10.8055 C.3     1  UNL1        0.1373
     33 O          65.1461   82.4279   12.0106 O.3     1  UNL1       -0.3820
     34 H          65.8140   83.1293   12.0642 H       1  UNL1        0.2104
@<TRIPOS>BOND
     1    28    29    1
     2    14    29    1
     3    14    15    1
     4    15    16   ar
     5    16    17   ar
     6    17    18   ar
     7    18    21    1
     8    21    22   ar
     9    22    23   ar
    10    23    24   ar
    11    24    25    1
    12    24    26   ar
    13    26    27   ar
    14    18    19   ar
    15    19    20   ar
    16    14     1    1
    17     1     2    1
    18     2     3    1
    19     3     4    1
    20     4    30    1
    21    30    31    1
    22    31    32    1
    23    32    33    1
    24     4     8    1
    25     8     9   ar
    26     9    10   ar
    27    10    11   ar
    28    11    12   ar
    29    12    13   ar
    30     4     5    1
    31     5     6    1
    32     6     7    2
    33    20    15   ar
    34     6     1   am
    35    27    21   ar
    36    13     8   ar
    37    33    34    1
