@<TRIPOS>MOLECULE
*****
 36 39 0 0 0
SMALL
GASTEIGER

@<TRIPOS>ATOM
      1 C          63.9677   86.2952   15.4913 C.ar    1  UNL1       -0.0024
      2 C          63.2296   86.1767   16.7917 C.ar    1  UNL1       -0.0026
      3 C          62.8291   87.4122   17.5420 C.ar    1  UNL1       -0.0001
      4 C          63.1666   88.7662   16.9919 C.ar    1  UNL1        0.0045
      5 C          63.9047   88.8847   15.6915 C.ar    1  UNL1        0.0534
      6 C          64.3053   87.6492   14.9411 C.ar    1  UNL1        0.0019
      7 C          64.2423   90.2388   15.1414 C.2     1  UNL1        0.2495
      8 O          63.4497   91.4395   15.5656 O.2     1  UNL1       -0.2698
      9 N          65.3723   90.3921   14.1670 N.am    1  UNL1       -0.2804
     10 H          65.8925   89.6040   13.8886 H       1  UNL1        0.1552
     11 C          65.7099   91.7462   13.6169 C.ar    1  UNL1        0.0502
     12 C          66.0012   92.8836   14.5503 C.ar    1  UNL1        0.0143
     13 C          66.3388   94.2376   14.0002 C.ar    1  UNL1       -0.0032
     14 C          66.3849   94.4542   12.5167 C.ar    1  UNL1       -0.0234
     15 C          66.0935   93.3168   11.5832 C.ar    1  UNL1       -0.0088
     16 C          65.7560   91.9628   12.1334 C.ar    1  UNL1        0.0115
     17 C          66.1397   93.5334   10.0997 C.3     1  UNL1        0.0989
     18 N          66.4772   94.8874    9.5495 N.3     1  UNL1       -0.2674
     19 C          66.5233   95.1040    8.0660 C.3     1  UNL1        0.0899
     20 C          66.7686   96.0249   10.4830 C.3     1  UNL1        0.0771
     21 C          66.7224   95.8083   11.9665 C.3     1  UNL1        0.0434
     22 C          64.3683   85.0596   14.7409 C.3     1  UNL1        0.1166
     23 C          62.9486   85.0150   12.5655 C.2     1  UNL1        0.2462
     24 O          61.6924   85.0256   13.3851 O.2     1  UNL1       -0.2701
     25 N          64.2866   85.0320   13.2434 N.am    1  UNL1       -0.2969
     26 H          65.1111   85.0250   12.7055 H       1  UNL1        0.1501
     27 C          62.7034   84.9322    8.0730 C.ar    1  UNL1        0.1724
     28 C          63.6185   83.9856    8.7917 C.ar    1  UNL1        0.0402
     29 C          63.7002   84.0132   10.2892 C.ar    1  UNL1        0.0078
     30 C          62.8669   84.9874   11.0680 C.ar    1  UNL1        0.0566
     31 C          61.9518   85.9339   10.3492 C.ar    1  UNL1        0.0446
     32 C          61.8701   85.9063    8.8517 C.ar    1  UNL1        0.1725
     33 C          61.5545   84.0976    5.8973 C.3     1  UNL1        0.2526
     34 O          62.6217   84.9046    6.5754 O.3     1  UNL1       -0.4684
     35 O          60.9549   86.8530    8.1330 O.3     1  UNL1       -0.4684
     36 C          59.5362   86.4560    7.8513 C.3     1  UNL1        0.2526
@<TRIPOS>BOND
     1    33    34    1
     2    34    27    1
     3    27    28   ar
     4    28    29   ar
     5    29    30   ar
     6    30    23    1
     7    23    24    2
     8    23    25   am
     9    25    22    1
    10    22     1    1
    11     1     2   ar
    12     2     3   ar
    13     3     4   ar
    14     4     5   ar
    15     5     7    1
    16     7     8    2
    17     7     9   am
    18     9    11    1
    19    11    12   ar
    20    12    13   ar
    21    13    14   ar
    22    14    15   ar
    23    15    16   ar
    24    15    17    1
    25    17    18    1
    26    18    19    1
    27    18    20    1
    28    20    21    1
    29     5     6   ar
    30    30    31   ar
    31    31    32   ar
    32    32    35    1
    33    35    36    1
    34    32    27   ar
    35     6     1   ar
    36    16    11   ar
    37    21    14    1
    38    25    26    1
    39     9    10    1
@<TRIPOS>MOLECULE
*****
 36 39 0 0 0
SMALL
GASTEIGER

@<TRIPOS>ATOM
      1 C          59.9887   88.8357   10.1247 C.ar    1  UNL1       -0.0024
      2 C          59.9661   87.3444    9.9646 C.ar    1  UNL1       -0.0026
      3 C          59.8454   86.7386    8.5977 C.ar    1  UNL1       -0.0001
      4 C          59.7472   87.6240    7.3909 C.ar    1  UNL1        0.0045
      5 C          59.7698   89.1153    7.5510 C.ar    1  UNL1        0.0534
      6 C          59.8906   89.7211    8.9179 C.ar    1  UNL1        0.0019
      7 C          59.6717   90.0007    6.3442 C.2     1  UNL1        0.2495
      8 O          58.3278   90.3427    5.7722 O.2     1  UNL1       -0.2698
      9 N          60.9173   90.5442    5.7094 N.am    1  UNL1       -0.2804
     10 H          61.7993   90.3198    6.0848 H       1  UNL1        0.1552
     11 C          60.8191   91.4296    4.5025 C.ar    1  UNL1        0.0502
     12 C          59.5173   92.0926    4.1626 C.ar    1  UNL1        0.0143
     13 C          59.4192   92.9780    2.9558 C.ar    1  UNL1       -0.0032
     14 C          60.6229   93.2004    2.0889 C.ar    1  UNL1       -0.0234
     15 C          61.9248   92.5375    2.4288 C.ar    1  UNL1       -0.0088
     16 C          62.0229   91.6521    3.6356 C.ar    1  UNL1        0.0115
     17 C          63.1285   92.7599    1.5620 C.3     1  UNL1        0.0989
     18 N          63.0304   93.6453    0.3552 N.3     1  UNL1       -0.2674
     19 C          64.2342   93.8677   -0.5117 C.3     1  UNL1        0.0899
     20 C          61.7285   94.3083    0.0152 C.3     1  UNL1        0.0771
     21 C          60.5248   94.0859    0.8821 C.3     1  UNL1        0.0434
     22 C          60.1095   89.4415   11.4916 C.3     1  UNL1        0.1166
     23 C          62.5941   89.6849   12.2109 C.2     1  UNL1        0.2462
     24 O          62.7256   88.1916   12.2617 O.2     1  UNL1       -0.2701
     25 N          61.2860   90.3099   11.8258 N.am    1  UNL1       -0.2969
     26 H          61.1996   91.2900   11.7925 H       1  UNL1        0.1501
     27 C          66.1237   92.2900   13.2135 C.ar    1  UNL1        0.1724
     28 C          65.6967   91.2083   14.1609 C.ar    1  UNL1        0.0402
     29 C          64.5202   90.3399   13.8267 C.ar    1  UNL1        0.0078
     30 C          63.7706   90.5533   12.5451 C.ar    1  UNL1        0.0566
     31 C          64.1976   91.6349   11.5977 C.ar    1  UNL1        0.0446
     32 C          65.3741   92.5033   11.9319 C.ar    1  UNL1        0.1725
     33 C          67.6242   93.4636   14.9802 C.3     1  UNL1        0.2526
     34 O          67.3002   93.1584   13.5478 O.3     1  UNL1       -0.4684
     35 O          65.8011   93.5850   10.9844 O.3     1  UNL1       -0.4684
     36 C          66.9552   93.3549   10.0544 C.3     1  UNL1        0.2526
@<TRIPOS>BOND
     1    33    34    1
     2    34    27    1
     3    27    28   ar
     4    28    29   ar
     5    29    30   ar
     6    30    23    1
     7    23    24    2
     8    23    25   am
     9    25    22    1
    10    22     1    1
    11     1     2   ar
    12     2     3   ar
    13     3     4   ar
    14     4     5   ar
    15     5     7    1
    16     7     8    2
    17     7     9   am
    18     9    11    1
    19    11    12   ar
    20    12    13   ar
    21    13    14   ar
    22    14    15   ar
    23    15    16   ar
    24    15    17    1
    25    17    18    1
    26    18    19    1
    27    18    20    1
    28    20    21    1
    29     5     6   ar
    30    30    31   ar
    31    31    32   ar
    32    32    35    1
    33    35    36    1
    34    32    27   ar
    35     6     1   ar
    36    16    11   ar
    37    21    14    1
    38    25    26    1
    39     9    10    1
@<TRIPOS>MOLECULE
*****
 36 39 0 0 0
SMALL
GASTEIGER

@<TRIPOS>ATOM
      1 C          59.3228   89.0011    7.2329 C.ar    1  UNL1       -0.0024
      2 C          58.9720   87.5516    7.0722 C.ar    1  UNL1       -0.0026
      3 C          59.3689   86.5624    8.1276 C.ar    1  UNL1       -0.0001
      4 C          60.1167   87.0226    9.3437 C.ar    1  UNL1        0.0045
      5 C          60.4675   88.4722    9.5044 C.ar    1  UNL1        0.0534
      6 C          60.0706   89.4614    8.4490 C.ar    1  UNL1        0.0019
      7 C          61.2153   88.9324   10.7206 C.2     1  UNL1        0.2495
      8 O          60.5200   88.9988   12.0480 O.2     1  UNL1       -0.2698
      9 N          62.6583   89.3263   10.6093 N.am    1  UNL1       -0.2804
     10 H          63.1147   89.2827    9.7380 H       1  UNL1        0.1552
     11 C          63.4061   89.7866   11.8255 C.ar    1  UNL1        0.0502
     12 C          63.4392   88.9281   13.0551 C.ar    1  UNL1        0.0143
     13 C          64.1869   89.3884   14.2712 C.ar    1  UNL1       -0.0032
     14 C          64.9017   90.7071   14.2577 C.ar    1  UNL1       -0.0234
     15 C          64.8686   91.5655   13.0281 C.ar    1  UNL1       -0.0088
     16 C          64.1209   91.1053   11.8120 C.ar    1  UNL1        0.0115
     17 C          65.5834   92.8842   13.0145 C.3     1  UNL1        0.0989
     18 N          66.3312   93.3445   14.2306 N.3     1  UNL1       -0.2674
     19 C          67.0459   94.6632   14.2171 C.3     1  UNL1        0.0899
     20 C          66.3642   92.4861   15.4603 C.3     1  UNL1        0.0771
     21 C          65.6495   91.1674   15.4738 C.3     1  UNL1        0.0434
     22 C          58.9258   89.9903    6.1775 C.3     1  UNL1        0.1166
     23 C          59.6365   91.7535    4.4066 C.2     1  UNL1        0.2462
     24 O          58.2723   92.3731    4.4761 O.2     1  UNL1       -0.2701
     25 N          59.9633   90.5621    5.2573 N.am    1  UNL1       -0.2969
     26 H          60.8587   90.1554    5.2117 H       1  UNL1        0.1501
     27 C          62.7489   93.4687    1.6459 C.ar    1  UNL1        0.1724
     28 C          63.0889   92.3045    2.5284 C.ar    1  UNL1        0.0402
     29 C          62.0514   91.7327    3.4486 C.ar    1  UNL1        0.0078
     30 C          60.6740   92.3252    3.4863 C.ar    1  UNL1        0.0566
     31 C          60.3339   93.4894    2.6038 C.ar    1  UNL1        0.0446
     32 C          61.3714   94.0612    1.6836 C.ar    1  UNL1        0.1725
     33 C          65.2174   93.6080    0.8478 C.3     1  UNL1        0.2526
     34 O          63.7863   94.0404    0.7257 O.3     1  UNL1       -0.4684
     35 O          61.0313   95.2255    0.8010 O.3     1  UNL1       -0.4684
     36 C          59.5964   95.5560    0.5152 C.3     1  UNL1        0.2526
@<TRIPOS>BOND
     1    33    34    1
     2    34    27    1
     3    27    28   ar
     4    28    29   ar
     5    29    30   ar
     6    30    23    1
     7    23    24    2
     8    23    25   am
     9    25    22    1
    10    22     1    1
    11     1     2   ar
    12     2     3   ar
    13     3     4   ar
    14     4     5   ar
    15     5     7    1
    16     7     8    2
    17     7     9   am
    18     9    11    1
    19    11    12   ar
    20    12    13   ar
    21    13    14   ar
    22    14    15   ar
    23    15    16   ar
    24    15    17    1
    25    17    18    1
    26    18    19    1
    27    18    20    1
    28    20    21    1
    29     5     6   ar
    30    30    31   ar
    31    31    32   ar
    32    32    35    1
    33    35    36    1
    34    32    27   ar
    35     6     1   ar
    36    16    11   ar
    37    21    14    1
    38    25    26    1
    39     9    10    1
@<TRIPOS>MOLECULE
*****
 36 39 0 0 0
SMALL
GASTEIGER

@<TRIPOS>ATOM
      1 C          60.1044   88.5183    9.6788 C.ar    1  UNL1       -0.0024
      2 C          59.5980   87.1183    9.4948 C.ar    1  UNL1       -0.0026
      3 C          59.0812   86.6775    8.1574 C.ar    1  UNL1       -0.0001
      4 C          59.0708   87.6365    7.0042 C.ar    1  UNL1        0.0045
      5 C          59.5771   89.0364    7.1882 C.ar    1  UNL1        0.0534
      6 C          60.0939   89.4773    8.5256 C.ar    1  UNL1        0.0019
      7 C          59.5667   89.9955    6.0349 C.2     1  UNL1        0.2495
      8 O          58.2651   90.4056    5.4123 O.2     1  UNL1       -0.2698
      9 N          60.8578   90.5444    5.5041 N.am    1  UNL1       -0.2804
     10 H          61.7121   90.2752    5.9128 H       1  UNL1        0.1552
     11 C          60.8473   91.5034    4.3508 C.ar    1  UNL1        0.0502
     12 C          59.5947   92.2561    4.0126 C.ar    1  UNL1        0.0143
     13 C          59.5843   93.2151    2.8593 C.ar    1  UNL1       -0.0032
     14 C          60.8265   93.4214    2.0441 C.ar    1  UNL1       -0.0234
     15 C          62.0791   92.6687    2.3823 C.ar    1  UNL1       -0.0088
     16 C          62.0895   91.7097    3.5356 C.ar    1  UNL1        0.0115
     17 C          63.3213   92.8750    1.5672 C.3     1  UNL1        0.0989
     18 N          63.3108   93.8340    0.4139 N.3     1  UNL1       -0.2674
     19 C          64.5530   94.0403   -0.4013 C.3     1  UNL1        0.0899
     20 C          62.0582   94.5867    0.0756 C.3     1  UNL1        0.0771
     21 C          60.8160   94.3805    0.8908 C.3     1  UNL1        0.0434
     22 C          60.6212   88.9591   11.0163 C.3     1  UNL1        0.1166
     23 C          62.9127   89.9147   11.7814 C.2     1  UNL1        0.2462
     24 O          63.2742   88.5809   12.3647 O.2     1  UNL1       -0.2701
     25 N          61.5862   90.1038   11.1072 N.am    1  UNL1       -0.2969
     26 H          61.3490   90.9793   10.7244 H       1  UNL1        0.1501
     27 C          65.8080   93.3488   12.0541 C.ar    1  UNL1        0.1724
     28 C          65.2361   92.9538   10.7249 C.ar    1  UNL1        0.0402
     29 C          64.2710   91.8090   10.6340 C.ar    1  UNL1        0.0078
     30 C          63.8778   91.0594   11.8723 C.ar    1  UNL1        0.0566
     31 C          64.4497   91.4545   13.2015 C.ar    1  UNL1        0.0446
     32 C          65.4148   92.5992   13.2924 C.ar    1  UNL1        0.1725
     33 C          66.4798   95.7802   11.4321 C.3     1  UNL1        0.2526
     34 O          66.7731   94.4935   12.1451 O.3     1  UNL1       -0.4684
     35 O          65.9867   92.9942   14.6217 O.3     1  UNL1       -0.4684
     36 C          66.8919   92.0521   15.3586 C.3     1  UNL1        0.2526
@<TRIPOS>BOND
     1    33    34    1
     2    34    27    1
     3    27    28   ar
     4    28    29   ar
     5    29    30   ar
     6    30    23    1
     7    23    24    2
     8    23    25   am
     9    25    22    1
    10    22     1    1
    11     1     2   ar
    12     2     3   ar
    13     3     4   ar
    14     4     5   ar
    15     5     7    1
    16     7     8    2
    17     7     9   am
    18     9    11    1
    19    11    12   ar
    20    12    13   ar
    21    13    14   ar
    22    14    15   ar
    23    15    16   ar
    24    15    17    1
    25    17    18    1
    26    18    19    1
    27    18    20    1
    28    20    21    1
    29     5     6   ar
    30    30    31   ar
    31    31    32   ar
    32    32    35    1
    33    35    36    1
    34    32    27   ar
    35     6     1   ar
    36    16    11   ar
    37    21    14    1
    38    25    26    1
    39     9    10    1
@<TRIPOS>MOLECULE
*****
 36 39 0 0 0
SMALL
GASTEIGER

@<TRIPOS>ATOM
      1 C          59.2204   90.0853    6.3606 C.ar    1  UNL1       -0.0024
      2 C          57.7276   90.1226    6.2188 C.ar    1  UNL1       -0.0026
      3 C          57.0962   90.9719    5.1558 C.ar    1  UNL1       -0.0001
      4 C          57.9576   91.7838    4.2345 C.ar    1  UNL1        0.0045
      5 C          59.4504   91.7464    4.3763 C.ar    1  UNL1        0.0534
      6 C          60.0818   90.8972    5.4393 C.ar    1  UNL1        0.0019
      7 C          60.3118   92.5584    3.4550 C.2     1  UNL1        0.2495
      8 O          59.8902   93.9425    3.0596 O.2     1  UNL1       -0.2698
      9 N          61.5948   91.9862    2.9291 N.am    1  UNL1       -0.2804
     10 H          61.8715   91.0777    3.1887 H       1  UNL1        0.1552
     11 C          62.4562   92.7982    2.0078 C.ar    1  UNL1        0.0502
     12 C          63.7361   93.3968    2.5110 C.ar    1  UNL1        0.0143
     13 C          64.5975   94.2087    1.5897 C.ar    1  UNL1       -0.0032
     14 C          64.1789   94.4220    0.1652 C.ar    1  UNL1       -0.0234
     15 C          62.8989   93.8234   -0.3380 C.ar    1  UNL1       -0.0088
     16 C          62.0375   93.0115    0.5833 C.ar    1  UNL1        0.0115
     17 C          62.4802   94.0366   -1.7625 C.3     1  UNL1        0.0989
     18 N          63.3416   94.8486   -2.6838 N.3     1  UNL1       -0.2674
     19 C          62.9229   95.0618   -4.1083 C.3     1  UNL1        0.0899
     20 C          64.6216   95.4472   -2.1806 C.3     1  UNL1        0.0771
     21 C          65.0403   95.2340   -0.7561 C.3     1  UNL1        0.0434
     22 C          59.8518   89.2360    7.4237 C.3     1  UNL1        0.1166
     23 C          61.5089   89.0264    9.4137 C.2     1  UNL1        0.2462
     24 O          61.5388   87.5378    9.2319 O.2     1  UNL1       -0.2701
     25 N          60.6654   89.8755    8.5096 N.am    1  UNL1       -0.2969
     26 H          60.6457   90.8525    8.6289 H       1  UNL1        0.1501
     27 C          63.9496   90.9448   12.6713 C.ar    1  UNL1        0.1724
     28 C          63.8564   91.5944   11.3226 C.ar    1  UNL1        0.0402
     29 C          63.0429   90.9550   10.2367 C.ar    1  UNL1        0.0078
     30 C          62.3224   89.6659   10.4996 C.ar    1  UNL1        0.0566
     31 C          62.4156   89.0163   11.8484 C.ar    1  UNL1        0.0446
     32 C          63.2292   89.6557   12.9342 C.ar    1  UNL1        0.1725
     33 C          66.1186   92.1465   13.4466 C.3     1  UNL1        0.2526
     34 O          64.7632   91.5843   13.7572 O.3     1  UNL1       -0.4684
     35 O          63.3223   89.0060   14.2831 O.3     1  UNL1       -0.4684
     36 C          64.3275   87.9192   14.5243 C.3     1  UNL1        0.2526
@<TRIPOS>BOND
     1    33    34    1
     2    34    27    1
     3    27    28   ar
     4    28    29   ar
     5    29    30   ar
     6    30    23    1
     7    23    24    2
     8    23    25   am
     9    25    22    1
    10    22     1    1
    11     1     2   ar
    12     2     3   ar
    13     3     4   ar
    14     4     5   ar
    15     5     7    1
    16     7     8    2
    17     7     9   am
    18     9    11    1
    19    11    12   ar
    20    12    13   ar
    21    13    14   ar
    22    14    15   ar
    23    15    16   ar
    24    15    17    1
    25    17    18    1
    26    18    19    1
    27    18    20    1
    28    20    21    1
    29     5     6   ar
    30    30    31   ar
    31    31    32   ar
    32    32    35    1
    33    35    36    1
    34    32    27   ar
    35     6     1   ar
    36    16    11   ar
    37    21    14    1
    38    25    26    1
    39     9    10    1
@<TRIPOS>MOLECULE
*****
 36 39 0 0 0
SMALL
GASTEIGER

@<TRIPOS>ATOM
      1 C          59.2827   90.1396    6.2429 C.ar    1  UNL1       -0.0024
      2 C          57.8304   90.4726    6.0703 C.ar    1  UNL1       -0.0026
      3 C          57.3993   91.4037    4.9762 C.ar    1  UNL1       -0.0001
      4 C          58.4206   92.0019    4.0547 C.ar    1  UNL1        0.0045
      5 C          59.8729   91.6688    4.2273 C.ar    1  UNL1        0.0534
      6 C          60.3040   90.7377    5.3214 C.ar    1  UNL1        0.0019
      7 C          60.8942   92.2670    3.3057 C.2     1  UNL1        0.2495
      8 O          62.3425   91.9067    3.4561 O.2     1  UNL1       -0.2698
      9 N          60.4672   93.2254    2.2338 N.am    1  UNL1       -0.2804
     10 H          59.5167   93.4619    2.1351 H       1  UNL1        0.1552
     11 C          61.4885   93.8236    1.3122 C.ar    1  UNL1        0.0502
     12 C          62.3654   94.9429    1.7898 C.ar    1  UNL1        0.0143
     13 C          63.3866   95.5410    0.8682 C.ar    1  UNL1       -0.0032
     14 C          63.5310   95.0198   -0.5309 C.ar    1  UNL1       -0.0234
     15 C          62.6541   93.9004   -1.0084 C.ar    1  UNL1       -0.0088
     16 C          61.6329   93.3023   -0.0869 C.ar    1  UNL1        0.0115
     17 C          62.7985   93.3792   -2.4075 C.3     1  UNL1        0.0989
     18 N          63.8197   93.9773   -3.3291 N.3     1  UNL1       -0.2674
     19 C          63.9641   93.4560   -4.7281 C.3     1  UNL1        0.0899
     20 C          64.6967   95.0967   -2.8515 C.3     1  UNL1        0.0771
     21 C          64.5523   95.6180   -1.4524 C.3     1  UNL1        0.0434
     22 C          59.7137   89.2084    7.3371 C.3     1  UNL1        0.1166
     23 C          61.3595   88.7522    9.2949 C.2     1  UNL1        0.2462
     24 O          61.2942   87.2815    9.0071 O.2     1  UNL1       -0.2701
     25 N          60.5693   89.7156    8.4599 N.am    1  UNL1       -0.2969
     26 H          60.6122   90.6809    8.6487 H       1  UNL1        0.1501
     27 C          63.9263   90.2739   12.6633 C.ar    1  UNL1        0.1724
     28 C          63.3120   88.9080   12.7465 C.ar    1  UNL1        0.0402
     29 C          62.4564   88.4008   11.6237 C.ar    1  UNL1        0.0078
     30 C          62.2151   89.2594   10.4177 C.ar    1  UNL1        0.0566
     31 C          62.8293   90.6253   10.3345 C.ar    1  UNL1        0.0446
     32 C          63.6849   91.1326   11.4574 C.ar    1  UNL1        0.1725
     33 C          64.3299   90.6165   15.2069 C.3     1  UNL1        0.2526
     34 O          64.7818   90.7811   13.7861 O.3     1  UNL1       -0.4684
     35 O          64.2992   92.4986   11.3741 O.3     1  UNL1       -0.4684
     36 C          65.5939   92.6954   10.6428 C.3     1  UNL1        0.2526
@<TRIPOS>BOND
     1    33    34    1
     2    34    27    1
     3    27    28   ar
     4    28    29   ar
     5    29    30   ar
     6    30    23    1
     7    23    24    2
     8    23    25   am
     9    25    22    1
    10    22     1    1
    11     1     2   ar
    12     2     3   ar
    13     3     4   ar
    14     4     5   ar
    15     5     7    1
    16     7     8    2
    17     7     9   am
    18     9    11    1
    19    11    12   ar
    20    12    13   ar
    21    13    14   ar
    22    14    15   ar
    23    15    16   ar
    24    15    17    1
    25    17    18    1
    26    18    19    1
    27    18    20    1
    28    20    21    1
    29     5     6   ar
    30    30    31   ar
    31    31    32   ar
    32    32    35    1
    33    35    36    1
    34    32    27   ar
    35     6     1   ar
    36    16    11   ar
    37    21    14    1
    38    25    26    1
    39     9    10    1
@<TRIPOS>MOLECULE
*****
 36 39 0 0 0
SMALL
GASTEIGER

@<TRIPOS>ATOM
      1 C          59.5635   91.6652    4.5007 C.ar    1  UNL1       -0.0024
      2 C          58.1051   91.9341    4.2751 C.ar    1  UNL1       -0.0026
      3 C          57.0731   91.1786    5.0587 C.ar    1  UNL1       -0.0001
      4 C          57.4995   90.1542    6.0680 C.ar    1  UNL1        0.0045
      5 C          58.9578   89.8852    6.2936 C.ar    1  UNL1        0.0534
      6 C          59.9898   90.6408    5.5099 C.ar    1  UNL1        0.0019
      7 C          59.3842   88.8607    7.3029 C.2     1  UNL1        0.2495
      8 O          58.6958   87.5291    7.3566 O.2     1  UNL1       -0.2698
      9 N          60.4988   89.1678    8.2585 N.am    1  UNL1       -0.2804
     10 H          60.9506   90.0418    8.2232 H       1  UNL1        0.1552
     11 C          60.9252   88.1433    9.2678 C.ar    1  UNL1        0.0502
     12 C          60.4808   88.2665   10.6951 C.ar    1  UNL1        0.0143
     13 C          60.9072   87.2420   11.7044 C.ar    1  UNL1       -0.0032
     14 C          61.7779   86.0943   11.2863 C.ar    1  UNL1       -0.0234
     15 C          62.2222   85.9712    9.8589 C.ar    1  UNL1       -0.0088
     16 C          61.7959   86.9957    8.8497 C.ar    1  UNL1        0.0115
     17 C          63.0929   84.8235    9.4408 C.3     1  UNL1        0.0989
     18 N          63.5192   83.7990   10.4501 N.3     1  UNL1       -0.2674
     19 C          64.3899   82.6514   10.0320 C.3     1  UNL1        0.0899
     20 C          63.0749   83.9222   11.8775 C.3     1  UNL1        0.0771
     21 C          62.2042   85.0698   12.2956 C.3     1  UNL1        0.0434
     22 C          60.5955   92.4208    3.7170 C.3     1  UNL1        0.1166
     23 C          61.3873   92.6310    1.2515 C.2     1  UNL1        0.2462
     24 O          62.7254   92.0709    1.6335 O.2     1  UNL1       -0.2701
     25 N          60.3224   92.8059    2.2932 N.am    1  UNL1       -0.2969
     26 H          59.4442   93.1735    2.0425 H       1  UNL1        0.1501
     27 C          60.5681   93.7863   -3.0198 C.ar    1  UNL1        0.1724
     28 C          61.9343   93.9926   -2.4359 C.ar    1  UNL1        0.0402
     29 C          62.2074   93.6075   -1.0121 C.ar    1  UNL1        0.0078
     30 C          61.1143   93.0161   -0.1723 C.ar    1  UNL1        0.0566
     31 C          59.7481   92.8098   -0.7562 C.ar    1  UNL1        0.0446
     32 C          59.4751   93.1949   -2.1800 C.ar    1  UNL1        0.1725
     33 C          61.4226   94.6051   -5.3327 C.3     1  UNL1        0.2526
     34 O          60.2951   94.1715   -4.4436 O.3     1  UNL1       -0.4684
     35 O          58.1088   92.9886   -2.7639 O.3     1  UNL1       -0.4684
     36 C          56.9862   92.5065   -1.8937 C.3     1  UNL1        0.2526
@<TRIPOS>BOND
     1    33    34    1
     2    34    27    1
     3    27    28   ar
     4    28    29   ar
     5    29    30   ar
     6    30    23    1
     7    23    24    2
     8    23    25   am
     9    25    22    1
    10    22     1    1
    11     1     2   ar
    12     2     3   ar
    13     3     4   ar
    14     4     5   ar
    15     5     7    1
    16     7     8    2
    17     7     9   am
    18     9    11    1
    19    11    12   ar
    20    12    13   ar
    21    13    14   ar
    22    14    15   ar
    23    15    16   ar
    24    15    17    1
    25    17    18    1
    26    18    19    1
    27    18    20    1
    28    20    21    1
    29     5     6   ar
    30    30    31   ar
    31    31    32   ar
    32    32    35    1
    33    35    36    1
    34    32    27   ar
    35     6     1   ar
    36    16    11   ar
    37    21    14    1
    38    25    26    1
    39     9    10    1
@<TRIPOS>MOLECULE
*****
 36 39 0 0 0
SMALL
GASTEIGER

@<TRIPOS>ATOM
      1 C          60.3382   88.2619    9.3254 C.ar    1  UNL1       -0.0024
      2 C          59.4683   87.0580    9.1157 C.ar    1  UNL1       -0.0026
      3 C          58.6514   86.9318    7.8640 C.ar    1  UNL1       -0.0001
      4 C          58.7043   88.0095    6.8221 C.ar    1  UNL1        0.0045
      5 C          59.5742   89.2134    7.0318 C.ar    1  UNL1        0.0534
      6 C          60.3911   89.3396    8.2834 C.ar    1  UNL1        0.0019
      7 C          59.6271   90.2911    5.9897 C.2     1  UNL1        0.2495
      8 O          58.4188   91.1402    5.7269 O.2     1  UNL1       -0.2698
      9 N          60.8883   90.5198    5.2106 N.am    1  UNL1       -0.2804
     10 H          61.6813   89.9625    5.3831 H       1  UNL1        0.1552
     11 C          60.9412   91.5975    4.1686 C.ar    1  UNL1        0.0502
     12 C          59.7220   92.4222    3.8799 C.ar    1  UNL1        0.0143
     13 C          59.7749   93.4999    2.8380 C.ar    1  UNL1       -0.0032
     14 C          61.0471   93.7528    2.0846 C.ar    1  UNL1       -0.0234
     15 C          62.2664   92.9282    2.3732 C.ar    1  UNL1       -0.0088
     16 C          62.2134   91.8505    3.4152 C.ar    1  UNL1        0.0115
     17 C          63.5385   93.1812    1.6199 C.3     1  UNL1        0.0989
     18 N          63.5915   94.2588    0.5779 N.3     1  UNL1       -0.2674
     19 C          64.8637   94.5118   -0.1754 C.3     1  UNL1        0.0899
     20 C          62.3722   95.0836    0.2892 C.3     1  UNL1        0.0771
     21 C          61.1000   94.8306    1.0426 C.3     1  UNL1        0.0434
     22 C          61.1552   88.3880   10.5771 C.3     1  UNL1        0.1166
     23 C          62.3631   86.0884   10.6259 C.2     1  UNL1        0.2462
     24 O          62.7276   86.2492    9.1798 O.2     1  UNL1       -0.2701
     25 N          61.5769   87.1578   11.3246 N.am    1  UNL1       -0.2969
     26 H          61.3377   87.0523   12.2737 H       1  UNL1        0.1501
     27 C          63.6284   82.3977   12.8683 C.ar    1  UNL1        0.1724
     28 C          63.7212   82.4347   11.3717 C.ar    1  UNL1        0.0402
     29 C          63.2994   83.6649   10.6242 C.ar    1  UNL1        0.0078
     30 C          62.7849   84.8582   11.3734 C.ar    1  UNL1        0.0566
     31 C          62.6921   84.8212   12.8700 C.ar    1  UNL1        0.0446
     32 C          63.1138   83.5910   13.6175 C.ar    1  UNL1        0.1725
     33 C          63.0551   80.0796   13.8918 C.3     1  UNL1        0.2526
     34 O          64.0501   81.1675   13.6158 O.3     1  UNL1       -0.4684
     35 O          63.0210   83.5541   15.1142 O.3     1  UNL1       -0.4684
     36 C          62.3013   84.6465   15.8482 C.3     1  UNL1        0.2526
@<TRIPOS>BOND
     1    33    34    1
     2    34    27    1
     3    27    28   ar
     4    28    29   ar
     5    29    30   ar
     6    30    23    1
     7    23    24    2
     8    23    25   am
     9    25    22    1
    10    22     1    1
    11     1     2   ar
    12     2     3   ar
    13     3     4   ar
    14     4     5   ar
    15     5     7    1
    16     7     8    2
    17     7     9   am
    18     9    11    1
    19    11    12   ar
    20    12    13   ar
    21    13    14   ar
    22    14    15   ar
    23    15    16   ar
    24    15    17    1
    25    17    18    1
    26    18    19    1
    27    18    20    1
    28    20    21    1
    29     5     6   ar
    30    30    31   ar
    31    31    32   ar
    32    32    35    1
    33    35    36    1
    34    32    27   ar
    35     6     1   ar
    36    16    11   ar
    37    21    14    1
    38    25    26    1
    39     9    10    1
@<TRIPOS>MOLECULE
*****
 36 39 0 0 0
SMALL
GASTEIGER

@<TRIPOS>ATOM
      1 C          60.3369   92.2639    3.3228 C.ar    1  UNL1       -0.0024
      2 C          61.8175   92.0272    3.2805 C.ar    1  UNL1       -0.0026
      3 C          62.5819   92.2825    2.0154 C.ar    1  UNL1       -0.0001
      4 C          61.8658   92.7746    0.7928 C.ar    1  UNL1        0.0045
      5 C          60.3852   93.0113    0.8351 C.ar    1  UNL1        0.0534
      6 C          59.6207   92.7559    2.1002 C.ar    1  UNL1        0.0019
      7 C          59.6690   93.5033   -0.3877 C.2     1  UNL1        0.2495
      8 O          60.1358   94.7497   -1.0796 O.2     1  UNL1       -0.2698
      9 N          58.4861   92.7490   -0.9185 N.am    1  UNL1       -0.2804
     10 H          58.1797   91.9310   -0.4643 H       1  UNL1        0.1552
     11 C          57.7700   93.2411   -2.1412 C.ar    1  UNL1        0.0502
     12 C          58.2626   92.8562   -3.5047 C.ar    1  UNL1        0.0143
     13 C          57.5465   93.3483   -4.7274 C.ar    1  UNL1       -0.0032
     14 C          56.3377   94.2252   -4.5866 C.ar    1  UNL1       -0.0234
     15 C          55.8450   94.6101   -3.2231 C.ar    1  UNL1       -0.0088
     16 C          56.5612   94.1180   -2.0004 C.ar    1  UNL1        0.0115
     17 C          54.6362   95.4870   -3.0823 C.3     1  UNL1        0.0989
     18 N          53.9201   95.9791   -4.3049 N.3     1  UNL1       -0.2674
     19 C          52.7113   96.8560   -4.1641 C.3     1  UNL1        0.0899
     20 C          54.4127   95.5942   -5.6685 C.3     1  UNL1        0.0771
     21 C          55.6215   94.7173   -5.8093 C.3     1  UNL1        0.0434
     22 C          59.5724   92.0085    4.5880 C.3     1  UNL1        0.1166
     23 C          59.0639   90.0829    6.2563 C.2     1  UNL1        0.2462
     24 O          57.5964   90.2366    5.9864 O.2     1  UNL1       -0.2701
     25 N          60.0519   90.9688    5.5570 N.am    1  UNL1       -0.2969
     26 H          61.0150   90.8679    5.7342 H       1  UNL1        0.1501
     27 C          60.5023   86.9637    9.1635 C.ar    1  UNL1        0.1724
     28 C          59.8227   86.5478    7.8927 C.ar    1  UNL1        0.0402
     29 C          59.3432   87.5876    6.9236 C.ar    1  UNL1        0.0078
     30 C          59.5434   89.0432    7.2253 C.ar    1  UNL1        0.0566
     31 C          60.2230   89.4591    8.4962 C.ar    1  UNL1        0.0446
     32 C          60.7024   88.4194    9.4653 C.ar    1  UNL1        0.1725
     33 C          62.4124   85.4742   10.1030 C.3     1  UNL1        0.2526
     34 O          60.9818   85.9240   10.1326 O.3     1  UNL1       -0.4684
     35 O          61.3821   88.8353   10.7362 O.3     1  UNL1       -0.4684
     36 C          60.8969   90.0401   11.4865 C.3     1  UNL1        0.2526
@<TRIPOS>BOND
     1    33    34    1
     2    34    27    1
     3    27    28   ar
     4    28    29   ar
     5    29    30   ar
     6    30    23    1
     7    23    24    2
     8    23    25   am
     9    25    22    1
    10    22     1    1
    11     1     2   ar
    12     2     3   ar
    13     3     4   ar
    14     4     5   ar
    15     5     7    1
    16     7     8    2
    17     7     9   am
    18     9    11    1
    19    11    12   ar
    20    12    13   ar
    21    13    14   ar
    22    14    15   ar
    23    15    16   ar
    24    15    17    1
    25    17    18    1
    26    18    19    1
    27    18    20    1
    28    20    21    1
    29     5     6   ar
    30    30    31   ar
    31    31    32   ar
    32    32    35    1
    33    35    36    1
    34    32    27   ar
    35     6     1   ar
    36    16    11   ar
    37    21    14    1
    38    25    26    1
    39     9    10    1
