@<TRIPOS>MOLECULE
*****
 29 32 0 0 0
SMALL
GASTEIGER

@<TRIPOS>ATOM
      1 C          65.8005   93.0318   12.4821 C.ar    1  UNL1        0.0338
      2 C          66.3362   92.9151   13.8783 C.ar    1  UNL1        0.1336
      3 O          67.2993   93.9400   14.4002 O.3     1  UNL1       -0.5055
      4 C          65.9090   91.7737   14.7526 C.ar    1  UNL1        0.0366
      5 C          64.9460   90.7488   14.2308 C.ar    1  UNL1        0.0031
      6 C          64.4102   90.8655   12.8346 C.ar    1  UNL1        0.0002
      7 C          63.4472   89.8406   12.3128 C.ar    1  UNL1        0.0000
      8 C          62.9114   89.9573   10.9167 C.ar    1  UNL1        0.0001
      9 C          63.3387   91.0988   10.0423 C.ar    1  UNL1        0.0000
     10 C          64.3017   92.1236   10.5641 C.ar    1  UNL1        0.0001
     11 C          64.8374   92.0069   11.9603 C.ar    1  UNL1        0.0029
     12 H          67.5662   94.6530   13.8540 H       1  UNL1        0.2922
     13 N          68.1515   94.7771    8.1895 N.pl3   1  UNL1       -0.3570
     14 C          67.4032   95.0460    9.4615 C.ar    1  UNL1        0.0415
     15 C          67.0822   96.4562    9.8591 C.ar    1  UNL1        0.0141
     16 C          66.3340   96.7250   11.1311 C.ar    1  UNL1        0.0013
     17 C          65.9067   95.5836   12.0054 C.ar    1  UNL1        0.0002
     18 C          66.2277   94.1733   11.6078 C.ar    1  UNL1        0.0041
     19 C          66.9760   93.9045   10.3358 C.ar    1  UNL1        0.0142
     20 H          68.4319   95.5263    7.6156 H       1  UNL1        0.1424
     21 H          68.3621   93.8515    7.9285 H       1  UNL1        0.1424
     22 C          61.9484   88.9325   10.3948 C.ar    1  UNL1        0.0030
     23 C          61.9288   87.5531   10.9839 C.ar    1  UNL1        0.0002
     24 C          60.9658   86.5283   10.4621 C.ar    1  UNL1        0.0031
     25 C          60.0223   86.8828    9.3511 C.ar    1  UNL1        0.0366
     26 C          60.0419   88.2621    8.7620 C.ar    1  UNL1        0.1337
     27 O          59.0984   88.6166    7.6510 O.3     1  UNL1       -0.5055
     28 C          61.0049   89.2870    9.2838 C.ar    1  UNL1        0.0366
     29 H          58.4969   87.9764    7.3251 H       1  UNL1        0.2922
@<TRIPOS>BOND
     1    13    14    1
     2    14    15   ar
     3    15    16   ar
     4    16    17   ar
     5    17    18   ar
     6    18     1    1
     7     1     2   ar
     8     2     3    1
     9     2     4   ar
    10     4     5   ar
    11     5     6   ar
    12     6     7   ar
    13     7     8   ar
    14     8    22    1
    15    22    23   ar
    16    23    24   ar
    17    24    25   ar
    18    25    26   ar
    19    26    27    1
    20    26    28   ar
    21     8     9   ar
    22     9    10   ar
    23    10    11   ar
    24    18    19   ar
    25    19    14   ar
    26    11     1   ar
    27    11     6   ar
    28    28    22   ar
    29    13    20    1
    30    13    21    1
    31     3    12    1
    32    27    29    1
@<TRIPOS>MOLECULE
*****
 29 32 0 0 0
SMALL
GASTEIGER

@<TRIPOS>ATOM
      1 C          62.8283   85.3900   11.7619 C.ar    1  UNL1        0.0338
      2 C          62.9484   84.0301   12.3832 C.ar    1  UNL1        0.1336
      3 O          62.5089   82.8155   11.6205 O.3     1  UNL1       -0.5055
      4 C          63.5080   83.8846   13.7673 C.ar    1  UNL1        0.0366
      5 C          63.9475   85.0990   14.5301 C.ar    1  UNL1        0.0031
      6 C          63.8274   86.4591   13.9088 C.ar    1  UNL1        0.0002
      7 C          64.2669   87.6735   14.6716 C.ar    1  UNL1        0.0000
      8 C          64.1468   89.0335   14.0503 C.ar    1  UNL1        0.0001
      9 C          63.5872   89.1790   12.6662 C.ar    1  UNL1        0.0000
     10 C          63.1477   87.9645   11.9034 C.ar    1  UNL1        0.0001
     11 C          63.2678   86.6046   12.5247 C.ar    1  UNL1        0.0029
     12 H          62.1594   82.9064   10.7559 H       1  UNL1        0.2922
     13 N          59.0388   86.9857    8.5850 N.pl3   1  UNL1       -0.3570
     14 C          60.3740   86.3333    8.7894 C.ar    1  UNL1        0.0415
     15 C          61.1495   85.8265    7.6097 C.ar    1  UNL1        0.0141
     16 C          62.4847   85.1741    7.8141 C.ar    1  UNL1        0.0013
     17 C          63.0443   85.0286    9.1982 C.ar    1  UNL1        0.0002
     18 C          62.2687   85.5355   10.3779 C.ar    1  UNL1        0.0041
     19 C          60.9336   86.1878   10.1734 C.ar    1  UNL1        0.0142
     20 H          58.6715   87.0812    7.6766 H       1  UNL1        0.1424
     21 H          58.5297   87.3183    9.3592 H       1  UNL1        0.1424
     22 C          64.5863   90.2480   14.8131 C.ar    1  UNL1        0.0030
     23 C          63.8002   90.7110   16.0038 C.ar    1  UNL1        0.0002
     24 C          64.2396   91.9255   16.7666 C.ar    1  UNL1        0.0031
     25 C          65.4652   92.6771   16.3387 C.ar    1  UNL1        0.0366
     26 C          66.2513   92.2142   15.1480 C.ar    1  UNL1        0.1337
     27 O          67.4769   92.9657   14.7201 O.3     1  UNL1       -0.5055
     28 C          65.8118   90.9996   14.3852 C.ar    1  UNL1        0.0366
     29 H          67.7514   93.7244   15.1966 H       1  UNL1        0.2922
@<TRIPOS>BOND
     1    13    14    1
     2    14    15   ar
     3    15    16   ar
     4    16    17   ar
     5    17    18   ar
     6    18     1    1
     7     1     2   ar
     8     2     3    1
     9     2     4   ar
    10     4     5   ar
    11     5     6   ar
    12     6     7   ar
    13     7     8   ar
    14     8    22    1
    15    22    23   ar
    16    23    24   ar
    17    24    25   ar
    18    25    26   ar
    19    26    27    1
    20    26    28   ar
    21     8     9   ar
    22     9    10   ar
    23    10    11   ar
    24    18    19   ar
    25    19    14   ar
    26    11     1   ar
    27    11     6   ar
    28    28    22   ar
    29    13    20    1
    30    13    21    1
    31     3    12    1
    32    27    29    1
@<TRIPOS>MOLECULE
*****
 29 32 0 0 0
SMALL
GASTEIGER

@<TRIPOS>ATOM
      1 C          62.6926   85.7760   11.9436 C.ar    1  UNL1        0.0338
      2 C          62.8113   84.4075   12.5462 C.ar    1  UNL1        0.1336
      3 O          62.2220   83.2230   11.8392 O.3     1  UNL1       -0.5055
      4 C          63.5191   84.2234   13.8558 C.ar    1  UNL1        0.0366
      5 C          64.1084   85.4079   14.5628 C.ar    1  UNL1        0.0031
      6 C          63.9897   86.7764   13.9603 C.ar    1  UNL1        0.0002
      7 C          64.5789   87.9608   14.6673 C.ar    1  UNL1        0.0000
      8 C          64.4603   89.3293   14.0647 C.ar    1  UNL1        0.0001
      9 C          63.7524   89.5134   12.7551 C.ar    1  UNL1        0.0000
     10 C          63.1632   88.3290   12.0481 C.ar    1  UNL1        0.0001
     11 C          63.2818   86.9605   12.6507 C.ar    1  UNL1        0.0029
     12 H          61.7798   83.3379   11.0211 H       1  UNL1        0.2922
     13 N          62.3857   84.8965    6.8316 N.pl3   1  UNL1       -0.3570
     14 C          61.8313   85.5203    8.0781 C.ar    1  UNL1        0.0415
     15 C          60.5690   86.3282    8.0149 C.ar    1  UNL1        0.0141
     16 C          60.0145   86.9520    9.2613 C.ar    1  UNL1        0.0013
     17 C          60.7224   86.7679   10.5709 C.ar    1  UNL1        0.0002
     18 C          61.9847   85.9600   10.6341 C.ar    1  UNL1        0.0041
     19 C          62.5391   85.3363    9.3877 C.ar    1  UNL1        0.0142
     20 H          61.9212   85.0173    5.9721 H       1  UNL1        0.1424
     21 H          63.2142   84.3663    6.8731 H       1  UNL1        0.1424
     22 C          65.0495   90.5138   14.7717 C.ar    1  UNL1        0.0030
     23 C          66.4682   90.9192   14.5014 C.ar    1  UNL1        0.0002
     24 C          67.0574   92.1037   15.2084 C.ar    1  UNL1        0.0031
     25 C          66.2280   92.8828   16.1857 C.ar    1  UNL1        0.0366
     26 C          64.8094   92.4774   16.4560 C.ar    1  UNL1        0.1337
     27 O          63.9800   93.2564   17.4333 O.3     1  UNL1       -0.5055
     28 C          64.2201   91.2929   15.7490 C.ar    1  UNL1        0.0366
     29 H          64.3480   93.9963   17.8749 H       1  UNL1        0.2922
@<TRIPOS>BOND
     1    13    14    1
     2    14    15   ar
     3    15    16   ar
     4    16    17   ar
     5    17    18   ar
     6    18     1    1
     7     1     2   ar
     8     2     3    1
     9     2     4   ar
    10     4     5   ar
    11     5     6   ar
    12     6     7   ar
    13     7     8   ar
    14     8    22    1
    15    22    23   ar
    16    23    24   ar
    17    24    25   ar
    18    25    26   ar
    19    26    27    1
    20    26    28   ar
    21     8     9   ar
    22     9    10   ar
    23    10    11   ar
    24    18    19   ar
    25    19    14   ar
    26    11     1   ar
    27    11     6   ar
    28    28    22   ar
    29    13    20    1
    30    13    21    1
    31     3    12    1
    32    27    29    1
@<TRIPOS>MOLECULE
*****
 29 32 0 0 0
SMALL
GASTEIGER

@<TRIPOS>ATOM
      1 C          62.4615   86.3109   11.4339 C.ar    1  UNL1        0.0338
      2 C          61.6229   86.6440   10.2357 C.ar    1  UNL1        0.1336
      3 O          61.0133   85.5443    9.4177 O.3     1  UNL1       -0.5055
      4 C          61.3937   88.0768    9.8556 C.ar    1  UNL1        0.0366
      5 C          62.0032   89.1765   10.6736 C.ar    1  UNL1        0.0031
      6 C          62.8419   88.8434   11.8718 C.ar    1  UNL1        0.0002
      7 C          63.4514   89.9431   12.6898 C.ar    1  UNL1        0.0000
      8 C          64.2900   89.6099   13.8880 C.ar    1  UNL1        0.0001
      9 C          64.5191   88.1771   14.2682 C.ar    1  UNL1        0.0000
     10 C          63.9096   87.0774   13.4502 C.ar    1  UNL1        0.0001
     11 C          63.0710   87.4106   12.2520 C.ar    1  UNL1        0.0029
     12 H          61.1564   84.6492    9.6551 H       1  UNL1        0.2922
     13 N          62.3118   82.5173   14.9817 N.pl3   1  UNL1       -0.3570
     14 C          62.6158   82.9812   13.5879 C.ar    1  UNL1        0.0415
     15 C          63.1488   82.0124   12.5745 C.ar    1  UNL1        0.0141
     16 C          63.4528   82.4764   11.1807 C.ar    1  UNL1        0.0013
     17 C          63.2237   83.9092   10.8006 C.ar    1  UNL1        0.0002
     18 C          62.6906   84.8780   11.8141 C.ar    1  UNL1        0.0041
     19 C          62.3867   84.4140   13.2078 C.ar    1  UNL1        0.0142
     20 H          62.4622   81.5769   15.2312 H       1  UNL1        0.1424
     21 H          61.9619   83.1532   15.6468 H       1  UNL1        0.1424
     22 C          64.8996   90.7096   14.7061 C.ar    1  UNL1        0.0030
     23 C          64.2007   91.2035   15.9381 C.ar    1  UNL1        0.0002
     24 C          64.8102   92.3031   16.7561 C.ar    1  UNL1        0.0031
     25 C          66.1186   92.9090   16.3423 C.ar    1  UNL1        0.0366
     26 C          66.8174   92.4151   15.1103 C.ar    1  UNL1        0.1337
     27 O          68.1257   93.0209   14.6964 O.3     1  UNL1       -0.5055
     28 C          66.2078   91.3154   14.2922 C.ar    1  UNL1        0.0366
     29 H          68.5064   93.7078   15.2074 H       1  UNL1        0.2922
@<TRIPOS>BOND
     1    13    14    1
     2    14    15   ar
     3    15    16   ar
     4    16    17   ar
     5    17    18   ar
     6    18     1    1
     7     1     2   ar
     8     2     3    1
     9     2     4   ar
    10     4     5   ar
    11     5     6   ar
    12     6     7   ar
    13     7     8   ar
    14     8    22    1
    15    22    23   ar
    16    23    24   ar
    17    24    25   ar
    18    25    26   ar
    19    26    27    1
    20    26    28   ar
    21     8     9   ar
    22     9    10   ar
    23    10    11   ar
    24    18    19   ar
    25    19    14   ar
    26    11     1   ar
    27    11     6   ar
    28    28    22   ar
    29    13    20    1
    30    13    21    1
    31     3    12    1
    32    27    29    1
@<TRIPOS>MOLECULE
*****
 29 32 0 0 0
SMALL
GASTEIGER

@<TRIPOS>ATOM
      1 C          63.3043   89.4816   12.2098 C.ar    1  UNL1        0.0338
      2 C          62.7193   90.1783   11.0172 C.ar    1  UNL1        0.1336
      3 O          62.8435   91.6671   10.8827 O.3     1  UNL1       -0.5055
      4 C          62.0100   89.3862    9.9591 C.ar    1  UNL1        0.0366
      5 C          61.8857   87.8975   10.0936 C.ar    1  UNL1        0.0031
      6 C          62.4707   87.2007   11.2862 C.ar    1  UNL1        0.0002
      7 C          62.3465   85.7119   11.4207 C.ar    1  UNL1        0.0000
      8 C          62.9315   85.0152   12.6133 C.ar    1  UNL1        0.0001
      9 C          63.6408   85.8073   13.6714 C.ar    1  UNL1        0.0000
     10 C          63.7651   87.2960   13.5369 C.ar    1  UNL1        0.0001
     11 C          63.1800   87.9927   12.3443 C.ar    1  UNL1        0.0029
     12 H          63.2866   92.1619   11.5436 H       1  UNL1        0.2922
     13 N          67.1750   92.6458   13.6258 N.pl3   1  UNL1       -0.3570
     14 C          65.9489   91.8557   13.9760 C.ar    1  UNL1        0.0415
     15 C          65.4322   91.8577   15.3841 C.ar    1  UNL1        0.0141
     16 C          64.2061   91.0676   15.7342 C.ar    1  UNL1        0.0013
     17 C          63.4968   90.2755   14.6761 C.ar    1  UNL1        0.0002
     18 C          64.0136   90.2736   13.2679 C.ar    1  UNL1        0.0041
     19 C          65.2396   91.0637   12.9179 C.ar    1  UNL1        0.0142
     20 H          67.6406   93.1657   14.3203 H       1  UNL1        0.1424
     21 H          67.5142   92.6445   12.7016 H       1  UNL1        0.1424
     22 C          62.8072   83.5264   12.7478 C.ar    1  UNL1        0.0030
     23 C          62.5207   82.9158   14.0876 C.ar    1  UNL1        0.0002
     24 C          62.3964   81.4270   14.2222 C.ar    1  UNL1        0.0031
     25 C          62.5587   80.5488   13.0169 C.ar    1  UNL1        0.0366
     26 C          62.8452   81.1595   11.6771 C.ar    1  UNL1        0.1337
     27 O          63.0075   80.2814   10.4719 O.3     1  UNL1       -0.5055
     28 C          62.9695   82.6483   11.5426 C.ar    1  UNL1        0.0366
     29 H          62.9298   79.3514   10.5560 H       1  UNL1        0.2922
@<TRIPOS>BOND
     1    13    14    1
     2    14    15   ar
     3    15    16   ar
     4    16    17   ar
     5    17    18   ar
     6    18     1    1
     7     1     2   ar
     8     2     3    1
     9     2     4   ar
    10     4     5   ar
    11     5     6   ar
    12     6     7   ar
    13     7     8   ar
    14     8    22    1
    15    22    23   ar
    16    23    24   ar
    17    24    25   ar
    18    25    26   ar
    19    26    27    1
    20    26    28   ar
    21     8     9   ar
    22     9    10   ar
    23    10    11   ar
    24    18    19   ar
    25    19    14   ar
    26    11     1   ar
    27    11     6   ar
    28    28    22   ar
    29    13    20    1
    30    13    21    1
    31     3    12    1
    32    27    29    1
@<TRIPOS>MOLECULE
*****
 29 32 0 0 0
SMALL
GASTEIGER

@<TRIPOS>ATOM
      1 C          62.8012   89.2830   11.6756 C.ar    1  UNL1        0.0338
      2 C          62.0907   89.9556   10.5386 C.ar    1  UNL1        0.1336
      3 O          62.1003   91.4515   10.4279 O.3     1  UNL1       -0.5055
      4 C          61.3704   89.1322    9.5122 C.ar    1  UNL1        0.0366
      5 C          61.3607   87.6364    9.6228 C.ar    1  UNL1        0.0031
      6 C          62.0713   86.9638   10.7599 C.ar    1  UNL1        0.0002
      7 C          62.0616   85.4679   10.8705 C.ar    1  UNL1        0.0000
      8 C          62.7721   84.7954   12.0075 C.ar    1  UNL1        0.0001
      9 C          63.4923   85.6187   13.0339 C.ar    1  UNL1        0.0000
     10 C          63.5020   87.1146   12.9233 C.ar    1  UNL1        0.0001
     11 C          62.7915   87.7871   11.7863 C.ar    1  UNL1        0.0029
     12 H          62.5502   91.9658   11.0691 H       1  UNL1        0.2922
     13 N          63.4623   90.7404   16.6192 N.pl3   1  UNL1       -0.3570
     14 C          63.8519   90.8350   15.1737 C.ar    1  UNL1        0.0415
     15 C          64.9618   91.7530   14.7547 C.ar    1  UNL1        0.0141
     16 C          65.3515   91.8476   13.3093 C.ar    1  UNL1        0.0013
     17 C          64.6313   91.0243   12.2829 C.ar    1  UNL1        0.0002
     18 C          63.5214   90.1063   12.7020 C.ar    1  UNL1        0.0041
     19 C          63.1317   90.0117   14.1474 C.ar    1  UNL1        0.0142
     20 H          63.9349   91.2807   17.2929 H       1  UNL1        0.1424
     21 H          62.7338   90.1379   16.8942 H       1  UNL1        0.1424
     22 C          62.7624   83.2995   12.1182 C.ar    1  UNL1        0.0030
     23 C          63.1521   82.4577   10.9394 C.ar    1  UNL1        0.0002
     24 C          63.1425   80.9618   11.0500 C.ar    1  UNL1        0.0031
     25 C          62.7431   80.3077   12.3395 C.ar    1  UNL1        0.0366
     26 C          62.3534   81.1494   13.5183 C.ar    1  UNL1        0.1337
     27 O          61.9540   80.4953   14.8077 O.3     1  UNL1       -0.5055
     28 C          62.3631   82.6454   13.4076 C.ar    1  UNL1        0.0366
     29 H          61.9480   79.5609   14.8768 H       1  UNL1        0.2922
@<TRIPOS>BOND
     1    13    14    1
     2    14    15   ar
     3    15    16   ar
     4    16    17   ar
     5    17    18   ar
     6    18     1    1
     7     1     2   ar
     8     2     3    1
     9     2     4   ar
    10     4     5   ar
    11     5     6   ar
    12     6     7   ar
    13     7     8   ar
    14     8    22    1
    15    22    23   ar
    16    23    24   ar
    17    24    25   ar
    18    25    26   ar
    19    26    27    1
    20    26    28   ar
    21     8     9   ar
    22     9    10   ar
    23    10    11   ar
    24    18    19   ar
    25    19    14   ar
    26    11     1   ar
    27    11     6   ar
    28    28    22   ar
    29    13    20    1
    30    13    21    1
    31     3    12    1
    32    27    29    1
@<TRIPOS>MOLECULE
*****
 29 32 0 0 0
SMALL
GASTEIGER

@<TRIPOS>ATOM
      1 C          63.7844   89.2866   15.1104 C.ar    1  UNL1        0.0338
      2 C          63.5117   89.8234   16.4842 C.ar    1  UNL1        0.1336
      3 O          63.6736   91.2885   16.7628 O.3     1  UNL1       -0.5055
      4 C          63.0769   88.8953   17.5795 C.ar    1  UNL1        0.0366
      5 C          62.9149   87.4304   17.3009 C.ar    1  UNL1        0.0031
      6 C          63.1877   86.8934   15.9271 C.ar    1  UNL1        0.0002
      7 C          63.0257   85.4285   15.6486 C.ar    1  UNL1        0.0000
      8 C          63.2985   84.8916   14.2748 C.ar    1  UNL1        0.0001
      9 C          63.7333   85.8197   13.1795 C.ar    1  UNL1        0.0000
     10 C          63.8952   87.2847   13.4581 C.ar    1  UNL1        0.0001
     11 C          63.6225   87.8215   14.8318 C.ar    1  UNL1        0.0029
     12 H          63.9452   91.8682   16.0786 H       1  UNL1        0.2922
     13 N          67.2247   92.6675   13.1780 N.pl3   1  UNL1       -0.3570
     14 C          65.9393   91.9051   13.0489 C.ar    1  UNL1        0.0415
     15 C          65.0887   92.0709   11.8246 C.ar    1  UNL1        0.0141
     16 C          63.8033   91.3085   11.6955 C.ar    1  UNL1        0.0013
     17 C          63.3686   90.3804   12.7908 C.ar    1  UNL1        0.0002
     18 C          64.2192   90.2147   14.0151 C.ar    1  UNL1        0.0041
     19 C          65.5045   90.9770   14.1442 C.ar    1  UNL1        0.0142
     20 H          67.5101   93.2767   12.4592 H       1  UNL1        0.1424
     21 H          67.7830   92.5587   13.9816 H       1  UNL1        0.1424
     22 C          63.1365   83.4266   13.9962 C.ar    1  UNL1        0.0030
     23 C          64.2548   82.6562   13.3591 C.ar    1  UNL1        0.0002
     24 C          64.0929   81.1913   13.0805 C.ar    1  UNL1        0.0031
     25 C          62.8126   80.4966   13.4391 C.ar    1  UNL1        0.0366
     26 C          61.6943   81.2670   14.0762 C.ar    1  UNL1        0.1337
     27 O          60.4141   80.5725   14.4347 O.3     1  UNL1       -0.5055
     28 C          61.8563   82.7321   14.3547 C.ar    1  UNL1        0.0366
     29 H          60.3129   79.6573   14.2607 H       1  UNL1        0.2922
@<TRIPOS>BOND
     1    13    14    1
     2    14    15   ar
     3    15    16   ar
     4    16    17   ar
     5    17    18   ar
     6    18     1    1
     7     1     2   ar
     8     2     3    1
     9     2     4   ar
    10     4     5   ar
    11     5     6   ar
    12     6     7   ar
    13     7     8   ar
    14     8    22    1
    15    22    23   ar
    16    23    24   ar
    17    24    25   ar
    18    25    26   ar
    19    26    27    1
    20    26    28   ar
    21     8     9   ar
    22     9    10   ar
    23    10    11   ar
    24    18    19   ar
    25    19    14   ar
    26    11     1   ar
    27    11     6   ar
    28    28    22   ar
    29    13    20    1
    30    13    21    1
    31     3    12    1
    32    27    29    1
@<TRIPOS>MOLECULE
*****
 29 32 0 0 0
SMALL
GASTEIGER

@<TRIPOS>ATOM
      1 C          63.6490   88.7401   15.2889 C.ar    1  UNL1        0.0338
      2 C          63.3877   89.1041   16.7204 C.ar    1  UNL1        0.1336
      3 O          63.5526   90.5239   17.1755 O.3     1  UNL1       -0.5055
      4 C          62.9614   88.0482   17.6969 C.ar    1  UNL1        0.0366
      5 C          62.7965   86.6285   17.2419 C.ar    1  UNL1        0.0031
      6 C          63.0578   86.2645   15.8104 C.ar    1  UNL1        0.0002
      7 C          62.8929   84.8447   15.3554 C.ar    1  UNL1        0.0000
      8 C          63.1542   84.4808   13.9239 C.ar    1  UNL1        0.0001
      9 C          63.5805   85.5366   12.9474 C.ar    1  UNL1        0.0000
     10 C          63.7454   86.9564   13.4024 C.ar    1  UNL1        0.0001
     11 C          63.4841   87.3203   14.8339 C.ar    1  UNL1        0.0029
     12 H          63.8189   91.1834   16.5655 H       1  UNL1        0.2922
     13 N          67.1131   92.2787   13.7146 N.pl3   1  UNL1       -0.3570
     14 C          65.8073   91.5652   13.5252 C.ar    1  UNL1        0.0415
     15 C          64.9277   91.9076   12.3594 C.ar    1  UNL1        0.0141
     16 C          63.6219   91.1941   12.1700 C.ar    1  UNL1        0.0013
     17 C          63.1957   90.1383   13.1465 C.ar    1  UNL1        0.0002
     18 C          64.0753   89.7959   14.3124 C.ar    1  UNL1        0.0041
     19 C          65.3810   90.5094   14.5018 C.ar    1  UNL1        0.0142
     20 H          67.3929   92.9717   13.0737 H       1  UNL1        0.1424
     21 H          67.6904   92.0540   14.4798 H       1  UNL1        0.1424
     22 C          62.9893   83.0610   13.4689 C.ar    1  UNL1        0.0030
     23 C          62.6148   81.9957   14.4562 C.ar    1  UNL1        0.0002
     24 C          62.4499   80.5759   14.0012 C.ar    1  UNL1        0.0031
     25 C          62.6595   80.2214   12.5588 C.ar    1  UNL1        0.0366
     26 C          63.0340   81.2867   11.5715 C.ar    1  UNL1        0.1337
     27 O          63.2435   80.9323   10.1291 O.3     1  UNL1       -0.5055
     28 C          63.1989   82.7065   12.0265 C.ar    1  UNL1        0.0366
     29 H          63.1405   80.0454    9.8449 H       1  UNL1        0.2922
@<TRIPOS>BOND
     1    13    14    1
     2    14    15   ar
     3    15    16   ar
     4    16    17   ar
     5    17    18   ar
     6    18     1    1
     7     1     2   ar
     8     2     3    1
     9     2     4   ar
    10     4     5   ar
    11     5     6   ar
    12     6     7   ar
    13     7     8   ar
    14     8    22    1
    15    22    23   ar
    16    23    24   ar
    17    24    25   ar
    18    25    26   ar
    19    26    27    1
    20    26    28   ar
    21     8     9   ar
    22     9    10   ar
    23    10    11   ar
    24    18    19   ar
    25    19    14   ar
    26    11     1   ar
    27    11     6   ar
    28    28    22   ar
    29    13    20    1
    30    13    21    1
    31     3    12    1
    32    27    29    1
@<TRIPOS>MOLECULE
*****
 29 32 0 0 0
SMALL
GASTEIGER

@<TRIPOS>ATOM
      1 C          64.2309   90.5995   12.8733 C.ar    1  UNL1        0.0338
      2 C          63.7269   91.4759   11.7652 C.ar    1  UNL1        0.1336
      3 O          64.0515   92.9405   11.7606 O.3     1  UNL1       -0.5055
      4 C          62.8985   90.8879   10.6616 C.ar    1  UNL1        0.0366
      5 C          62.5739   89.4235   10.6662 C.ar    1  UNL1        0.0031
      6 C          63.0778   88.5470   11.7743 C.ar    1  UNL1        0.0002
      7 C          62.7533   87.0826   11.7788 C.ar    1  UNL1        0.0000
      8 C          63.2572   86.2062   12.8869 C.ar    1  UNL1        0.0001
      9 C          64.0857   86.7942   13.9905 C.ar    1  UNL1        0.0000
     10 C          64.4102   88.2586   13.9860 C.ar    1  UNL1        0.0001
     11 C          63.9063   89.1350   12.8779 C.ar    1  UNL1        0.0029
     12 H          64.5690   93.3078   12.4500 H       1  UNL1        0.2922
     13 N          64.5637   92.7813   17.5775 N.pl3   1  UNL1       -0.3570
     14 C          65.2258   92.2784   16.3289 C.ar    1  UNL1        0.0415
     15 C          66.7163   92.3636   16.1840 C.ar    1  UNL1        0.0141
     16 C          67.3784   91.8607   14.9354 C.ar    1  UNL1        0.0013
     17 C          66.5499   91.2727   13.8319 C.ar    1  UNL1        0.0002
     18 C          65.0593   91.1875   13.9768 C.ar    1  UNL1        0.0041
     19 C          64.3973   91.6904   15.2253 C.ar    1  UNL1        0.0142
     20 H          65.1074   93.1672   18.3018 H       1  UNL1        0.1424
     21 H          63.5854   92.7254   17.6726 H       1  UNL1        0.1424
     22 C          62.9326   84.7416   12.8915 C.ar    1  UNL1        0.0030
     23 C          62.8707   83.9832   11.5989 C.ar    1  UNL1        0.0002
     24 C          62.5462   82.5187   11.6034 C.ar    1  UNL1        0.0031
     25 C          62.2836   81.8127   12.9006 C.ar    1  UNL1        0.0366
     26 C          62.3455   82.5712   14.1932 C.ar    1  UNL1        0.1337
     27 O          62.0829   81.8652   15.4904 O.3     1  UNL1       -0.5055
     28 C          62.6701   84.0357   14.1886 C.ar    1  UNL1        0.0366
     29 H          61.8802   80.9504   15.4932 H       1  UNL1        0.2922
@<TRIPOS>BOND
     1    13    14    1
     2    14    15   ar
     3    15    16   ar
     4    16    17   ar
     5    17    18   ar
     6    18     1    1
     7     1     2   ar
     8     2     3    1
     9     2     4   ar
    10     4     5   ar
    11     5     6   ar
    12     6     7   ar
    13     7     8   ar
    14     8    22    1
    15    22    23   ar
    16    23    24   ar
    17    24    25   ar
    18    25    26   ar
    19    26    27    1
    20    26    28   ar
    21     8     9   ar
    22     9    10   ar
    23    10    11   ar
    24    18    19   ar
    25    19    14   ar
    26    11     1   ar
    27    11     6   ar
    28    28    22   ar
    29    13    20    1
    30    13    21    1
    31     3    12    1
    32    27    29    1
