@<TRIPOS>MOLECULE
*****
 42 47 0 0 0
SMALL
GASTEIGER

@<TRIPOS>ATOM
      1 N          63.2550   90.0421   13.3096 N.pl3   1  UNL1       -0.2801
      2 H          62.3901   90.3602   12.9632 H       1  UNL1        0.1552
      3 C          62.9531   87.5999   12.4759 C.ar    1  UNL1        0.1477
      4 C          63.5002   88.5720   13.4788 C.ar    1  UNL1        0.0846
      5 C          64.2927   88.0739   14.6509 C.ar    1  UNL1        0.0174
      6 C          64.5380   86.6038   14.8202 C.ar    1  UNL1       -0.0031
      7 C          63.9908   85.6317   13.8173 C.ar    1  UNL1       -0.0231
      8 C          63.1984   86.1298   12.6452 C.ar    1  UNL1        0.0091
      9 C          62.5679   85.3381   11.5381 C.3     1  UNL1        0.0305
     10 C          62.5744   83.8525   11.3297 C.3     1  UNL1        0.0207
     11 C          63.2127   82.7921   12.1769 C.3     1  UNL1        0.0583
     12 C          64.0024   82.9551   13.4418 C.3     1  UNL1        0.0206
     13 C          64.3487   84.2188   14.1718 C.3     1  UNL1        0.0275
     14 N          63.0384   81.3822   11.6956 N.3     1  UNL1       -0.2697
     15 C          63.1973   81.0618   10.2388 C.3     1  UNL1        0.1046
     16 C          63.0229   79.6519    9.7575 C.3     1  UNL1        0.1595
     17 O          62.6898   78.5622   10.7330 O.3     1  UNL1       -0.3508
     18 C          62.5310   78.8825   12.1898 C.3     1  UNL1        0.1595
     19 C          62.7053   80.2924   12.6711 C.3     1  UNL1        0.1046
     20 C          60.7415   88.5452   11.4935 C.3     1  UNL1        0.2525
     21 O          62.1606   88.0980   11.3038 O.3     1  UNL1       -0.4705
     22 C          64.3276   91.0275   13.6682 C.ar    1  UNL1        0.2219
     23 N          64.9951   90.9545   15.0096 N.ar    1  UNL1       -0.2110
     24 C          66.0676   91.9398   15.3682 C.ar    1  UNL1        0.1160
     25 C          66.4727   92.9983   14.3855 C.ar    1  UNL1        0.1082
     26 CL         67.5453   93.9837   14.7441 Cl      1  UNL1       -0.0777
     27 C          65.8052   93.0713   13.0441 C.ar    1  UNL1        0.1435
     28 N          64.7326   92.0859   12.6855 N.ar    1  UNL1       -0.1979
     29 N          66.2102   94.1297   12.0614 N.pl3   1  UNL1       -0.3181
     30 H          65.9742   95.0711   12.2267 H       1  UNL1        0.1482
     31 C          66.9748   93.7538   10.8269 C.3     1  UNL1        0.0832
     32 C          67.2629   94.6520    9.6606 C.3     1  UNL1        0.0984
     33 C          68.0517   93.8671    8.6548 C.3     1  UNL1        0.0323
     34 C          68.6625   92.5270    8.3699 C.2     1  UNL1       -0.0304
     35 C          68.3745   91.6289    9.5362 C.2     1  UNL1       -0.0294
     36 C          67.5856   92.4138   10.5420 C.3     1  UNL1        0.0404
     37 C          67.3862   93.7971    9.9972 C.3     1  UNL1        0.0109
     38 C          66.8369   96.0838    9.5240 C.2     1  UNL1        0.2208
     39 N          67.1880   96.8560    8.2869 N.am    1  UNL1       -0.3288
     40 O          66.0598   96.7433   10.6245 O.2     1  UNL1       -0.2753
     41 H          67.6981   96.4231    7.5646 H       1  UNL1        0.1449
     42 H          66.9085   97.7957    8.1973 H       1  UNL1        0.1449
@<TRIPOS>BOND
     1    20    21    1
     2    21     3    1
     3     3     4   ar
     4     4     1    1
     5     1    22    1
     6    22    23   ar
     7    23    24   ar
     8    24    25   ar
     9    25    26    1
    10    25    27   ar
    11    27    29    1
    12    31    29    1
    13    31    32    1
    14    32    38    1
    15    38    39   am
    16    38    40    2
    17    32    33    1
    18    33    34    1
    19    34    35    2
    20    36    35    1
    21    36    37    1
    22    27    28   ar
    23     4     5   ar
    24     5     6   ar
    25     6     7   ar
    26     7     8   ar
    27     8     9    1
    28     9    10    1
    29    10    11    1
    30    11    14    1
    31    14    15    1
    32    15    16    1
    33    16    17    1
    34    17    18    1
    35    18    19    1
    36    11    12    1
    37    12    13    1
    38     8     3   ar
    39    19    14    1
    40    28    22   ar
    41    13     7    1
    42    36    31    1
    43    37    33    1
    44     1     2    1
    45    29    30    1
    46    39    41    1
    47    39    42    1
@<TRIPOS>MOLECULE
*****
 42 47 0 0 0
SMALL
GASTEIGER

@<TRIPOS>ATOM
      1 N          63.8282   91.0258   15.4291 N.pl3   1  UNL1       -0.2801
      2 H          63.0680   91.6511   15.4121 H       1  UNL1        0.1552
      3 C          63.6364   88.6552   14.3832 C.ar    1  UNL1        0.1477
      4 C          63.5853   89.5537   15.5833 C.ar    1  UNL1        0.0846
      5 C          63.2912   88.9800   16.9377 C.ar    1  UNL1        0.0174
      6 C          63.0482   87.5078   17.0920 C.ar    1  UNL1       -0.0031
      7 C          63.0994   86.6094   15.8918 C.ar    1  UNL1       -0.0231
      8 C          63.3934   87.1831   14.5376 C.ar    1  UNL1        0.0091
      9 C          63.4902   86.4708   13.2210 C.3     1  UNL1        0.0305
     10 C          63.3167   85.0087   12.9337 C.3     1  UNL1        0.0207
     11 C          63.0037   83.8981   13.8920 C.3     1  UNL1        0.0583
     12 C          62.7869   83.9750   15.3742 C.3     1  UNL1        0.0206
     13 C          62.8294   85.1817   16.2643 C.3     1  UNL1        0.0275
     14 N          62.8930   82.5295   13.2882 N.3     1  UNL1       -0.2697
     15 C          63.2641   82.3113   11.8512 C.3     1  UNL1        0.1046
     16 C          63.1533   80.9426   11.2475 C.3     1  UNL1        0.1595
     17 O          62.6714   79.7922   12.0806 O.3     1  UNL1       -0.3508
     18 C          62.3003   80.0103   13.5176 C.3     1  UNL1        0.1595
     19 C          62.4111   81.3789   14.1213 C.3     1  UNL1        0.1046
     20 C          62.8305   89.8572   12.2255 C.3     1  UNL1        0.2525
     21 O          63.9305   89.2289   13.0288 O.3     1  UNL1       -0.4705
     22 C          65.2296   91.5452   15.3006 C.ar    1  UNL1        0.2219
     23 N          65.8112   92.4092   16.3802 N.ar    1  UNL1       -0.2110
     24 C          67.2124   92.9286   16.2518 C.ar    1  UNL1        0.1160
     25 C          68.0323   92.5840   15.0438 C.ar    1  UNL1        0.1082
     26 CL         69.4336   93.1035   14.9154 Cl      1  UNL1       -0.0777
     27 C          67.4507   91.7201   13.9642 C.ar    1  UNL1        0.1435
     28 N          66.0494   91.2007   14.0926 N.ar    1  UNL1       -0.1979
     29 N          68.2705   91.3755   12.7562 N.pl3   1  UNL1       -0.3181
     30 H          68.9649   90.6801   12.8146 H       1  UNL1        0.1482
     31 C          68.0322   92.0904   11.4593 C.3     1  UNL1        0.0832
     32 C          66.9278   93.0664   11.1804 C.3     1  UNL1        0.0984
     33 C          67.0696   93.5340    9.7623 C.3     1  UNL1        0.0323
     34 C          67.8939   93.3985    8.5164 C.2     1  UNL1       -0.0304
     35 C          68.9983   92.4225    8.7953 C.2     1  UNL1       -0.0294
     36 C          68.8566   91.9549   10.2135 C.3     1  UNL1        0.0404
     37 C          67.6645   92.6419   10.8111 C.3     1  UNL1        0.0109
     38 C          65.8677   93.4988   12.1496 C.2     1  UNL1        0.2208
     39 N          64.5472   92.7880   12.1832 N.am    1  UNL1       -0.3288
     40 O          66.1281   94.6420   13.0852 O.2     1  UNL1       -0.2753
     41 H          64.3763   92.0377   11.5691 H       1  UNL1        0.1449
     42 H          63.8514   93.0718   12.8192 H       1  UNL1        0.1449
@<TRIPOS>BOND
     1    20    21    1
     2    21     3    1
     3     3     4   ar
     4     4     1    1
     5     1    22    1
     6    22    23   ar
     7    23    24   ar
     8    24    25   ar
     9    25    26    1
    10    25    27   ar
    11    27    29    1
    12    31    29    1
    13    31    32    1
    14    32    38    1
    15    38    39   am
    16    38    40    2
    17    32    33    1
    18    33    34    1
    19    34    35    2
    20    36    35    1
    21    36    37    1
    22    27    28   ar
    23     4     5   ar
    24     5     6   ar
    25     6     7   ar
    26     7     8   ar
    27     8     9    1
    28     9    10    1
    29    10    11    1
    30    11    14    1
    31    14    15    1
    32    15    16    1
    33    16    17    1
    34    17    18    1
    35    18    19    1
    36    11    12    1
    37    12    13    1
    38     8     3   ar
    39    19    14    1
    40    28    22   ar
    41    13     7    1
    42    36    31    1
    43    37    33    1
    44     1     2    1
    45    29    30    1
    46    39    41    1
    47    39    42    1
@<TRIPOS>MOLECULE
*****
 42 47 0 0 0
SMALL
GASTEIGER

@<TRIPOS>ATOM
      1 N          63.5711   90.9509   14.5960 N.pl3   1  UNL1       -0.2801
      2 H          62.8343   91.3637   15.1019 H       1  UNL1        0.1552
      3 C          63.5262   88.3825   14.2063 C.ar    1  UNL1        0.1477
      4 C          63.3017   89.7772   13.7017 C.ar    1  UNL1        0.0846
      5 C          62.8077   89.9981   12.3027 C.ar    1  UNL1        0.0174
      6 C          62.5383   88.8245   11.4083 C.ar    1  UNL1       -0.0031
      7 C          62.7628   87.4298   11.9130 C.ar    1  UNL1       -0.0231
      8 C          63.2567   87.2089   13.3119 C.ar    1  UNL1        0.0091
      9 C          63.5444   85.9118   14.0083 C.3     1  UNL1        0.0305
     10 C          63.4092   84.5153   13.4776 C.3     1  UNL1        0.0207
     11 C          62.9529   84.0711   12.1196 C.3     1  UNL1        0.0583
     12 C          62.5191   84.9135   10.9567 C.3     1  UNL1        0.0206
     13 C          62.4345   86.4083   10.8647 C.3     1  UNL1        0.0275
     14 N          62.9269   82.5883   11.8945 N.3     1  UNL1       -0.2697
     15 C          62.5348   81.6669   13.0114 C.3     1  UNL1        0.1046
     16 C          62.5089   80.1841   12.7864 C.3     1  UNL1        0.1595
     17 O          62.8750   79.6227   11.4445 O.3     1  UNL1       -0.3508
     18 C          63.2671   80.5440   10.3276 C.3     1  UNL1        0.1595
     19 C          63.2931   82.0268   10.5526 C.3     1  UNL1        0.1046
     20 C          63.1004   88.3836   16.7692 C.3     1  UNL1        0.2525
     21 O          64.0201   88.1616   15.6053 O.3     1  UNL1       -0.4705
     22 C          64.9632   91.4956   14.7195 C.ar    1  UNL1        0.2219
     23 N          65.3642   92.2580   15.9476 N.ar    1  UNL1       -0.2110
     24 C          66.7562   92.8027   16.0712 C.ar    1  UNL1        0.1160
     25 C          67.7475   92.5851   14.9666 C.ar    1  UNL1        0.1082
     26 CL         69.1397   93.1298   15.0901 Cl      1  UNL1       -0.0777
     27 C          67.3467   91.8227   13.7385 C.ar    1  UNL1        0.1435
     28 N          65.9545   91.2780   13.6150 N.ar    1  UNL1       -0.1979
     29 N          68.3379   91.6050   12.6339 N.pl3   1  UNL1       -0.3181
     30 H          69.1306   91.0419   12.7878 H       1  UNL1        0.1482
     31 C          68.1214   92.2454   11.2949 C.3     1  UNL1        0.0832
     32 C          67.0334   93.2181   10.9483 C.3     1  UNL1        0.0984
     33 C          67.1945   93.5993    9.5066 C.3     1  UNL1        0.0323
     34 C          68.0280   93.3794    8.2790 C.2     1  UNL1       -0.0304
     35 C          69.1160   92.4068    8.6256 C.2     1  UNL1       -0.0294
     36 C          68.9549   92.0255   10.0674 C.3     1  UNL1        0.0404
     37 C          67.7673   92.7626   10.6118 C.3     1  UNL1        0.0109
     38 C          65.9708   93.7212   11.8800 C.2     1  UNL1        0.2208
     39 N          64.5957   93.1233   11.8420 N.am    1  UNL1       -0.3288
     40 O          66.2834   94.8222   12.8495 O.2     1  UNL1       -0.2753
     41 H          64.3905   92.4006   11.2057 H       1  UNL1        0.1449
     42 H          63.8983   93.4535   12.4534 H       1  UNL1        0.1449
@<TRIPOS>BOND
     1    20    21    1
     2    21     3    1
     3     3     4   ar
     4     4     1    1
     5     1    22    1
     6    22    23   ar
     7    23    24   ar
     8    24    25   ar
     9    25    26    1
    10    25    27   ar
    11    27    29    1
    12    31    29    1
    13    31    32    1
    14    32    38    1
    15    38    39   am
    16    38    40    2
    17    32    33    1
    18    33    34    1
    19    34    35    2
    20    36    35    1
    21    36    37    1
    22    27    28   ar
    23     4     5   ar
    24     5     6   ar
    25     6     7   ar
    26     7     8   ar
    27     8     9    1
    28     9    10    1
    29    10    11    1
    30    11    14    1
    31    14    15    1
    32    15    16    1
    33    16    17    1
    34    17    18    1
    35    18    19    1
    36    11    12    1
    37    12    13    1
    38     8     3   ar
    39    19    14    1
    40    28    22   ar
    41    13     7    1
    42    36    31    1
    43    37    33    1
    44     1     2    1
    45    29    30    1
    46    39    41    1
    47    39    42    1
@<TRIPOS>MOLECULE
*****
 42 47 0 0 0
SMALL
GASTEIGER

@<TRIPOS>ATOM
      1 N          63.3218   90.0003   13.3626 N.pl3   1  UNL1       -0.2801
      2 H          62.4979   90.3176   12.9271 H       1  UNL1        0.1552
      3 C          62.9722   87.5605   12.5409 C.ar    1  UNL1        0.1477
      4 C          63.5691   88.5291   13.5184 C.ar    1  UNL1        0.0846
      5 C          64.4134   88.0264   14.6518 C.ar    1  UNL1        0.0174
      6 C          64.6608   86.5551   14.8077 C.ar    1  UNL1       -0.0031
      7 C          64.0638   85.5866   13.8301 C.ar    1  UNL1       -0.0231
      8 C          63.2196   86.0893   12.6968 C.ar    1  UNL1        0.0091
      9 C          62.5354   85.3014   11.6192 C.3     1  UNL1        0.0305
     10 C          62.5265   83.8161   11.4089 C.3     1  UNL1        0.0207
     11 C          63.1996   82.7522   12.2242 C.3     1  UNL1        0.0583
     12 C          64.0478   82.9104   13.4512 C.3     1  UNL1        0.0206
     13 C          64.4324   84.1719   14.1659 C.3     1  UNL1        0.0275
     14 N          62.9978   81.3435   11.7498 N.3     1  UNL1       -0.2697
     15 C          62.6349   80.2669   12.7293 C.3     1  UNL1        0.1046
     16 C          62.4331   78.8583   12.2549 C.3     1  UNL1        0.1595
     17 O          62.5941   78.5263   10.8010 O.3     1  UNL1       -0.3508
     18 C          62.9569   79.6028    9.8214 C.3     1  UNL1        0.1595
     19 C          63.1588   81.0114   10.2958 C.3     1  UNL1        0.1046
     20 C          62.7370   88.9298   10.3456 C.3     1  UNL1        0.2525
     21 O          62.1279   88.0631   11.4075 O.3     1  UNL1       -0.4705
     22 C          64.3299   90.9881   13.8704 C.ar    1  UNL1        0.2219
     23 N          64.3202   91.3948   15.3143 N.ar    1  UNL1       -0.2110
     24 C          65.3283   92.3826   15.8221 C.ar    1  UNL1        0.1160
     25 C          66.3462   92.9638   14.8861 C.ar    1  UNL1        0.1082
     26 CL         67.3543   93.9517   15.3939 Cl      1  UNL1       -0.0777
     27 C          66.3560   92.5572   13.4422 C.ar    1  UNL1        0.1435
     28 N          65.3478   91.5694   12.9344 N.ar    1  UNL1       -0.1979
     29 N          67.3738   93.1384   12.5062 N.pl3   1  UNL1       -0.3181
     30 H          68.3319   92.9650   12.6516 H       1  UNL1        0.1482
     31 C          66.9319   93.9838   11.3487 C.3     1  UNL1        0.0832
     32 C          67.3491   93.8081    9.9186 C.3     1  UNL1        0.0984
     33 C          66.6703   94.8690    9.1040 C.3     1  UNL1        0.0323
     34 C          65.7336   96.0385    9.1732 C.2     1  UNL1       -0.0304
     35 C          65.3164   96.2142   10.6033 C.2     1  UNL1       -0.0294
     36 C          65.9952   95.1533   11.4179 C.3     1  UNL1        0.0404
     37 C          66.8320   94.3219   10.4912 C.3     1  UNL1        0.0109
     38 C          68.2815   92.7561    9.3950 C.2     1  UNL1        0.2208
     39 N          69.7578   92.8775    9.6313 N.am    1  UNL1       -0.3288
     40 O          67.7376   91.5828    8.6351 O.2     1  UNL1       -0.2753
     41 H          70.1148   93.6476   10.1300 H       1  UNL1        0.1449
     42 H          70.3697   92.1871    9.2877 H       1  UNL1        0.1449
@<TRIPOS>BOND
     1    20    21    1
     2    21     3    1
     3     3     4   ar
     4     4     1    1
     5     1    22    1
     6    22    23   ar
     7    23    24   ar
     8    24    25   ar
     9    25    26    1
    10    25    27   ar
    11    27    29    1
    12    31    29    1
    13    31    32    1
    14    32    38    1
    15    38    39   am
    16    38    40    2
    17    32    33    1
    18    33    34    1
    19    34    35    2
    20    36    35    1
    21    36    37    1
    22    27    28   ar
    23     4     5   ar
    24     5     6   ar
    25     6     7   ar
    26     7     8   ar
    27     8     9    1
    28     9    10    1
    29    10    11    1
    30    11    14    1
    31    14    15    1
    32    15    16    1
    33    16    17    1
    34    17    18    1
    35    18    19    1
    36    11    12    1
    37    12    13    1
    38     8     3   ar
    39    19    14    1
    40    28    22   ar
    41    13     7    1
    42    36    31    1
    43    37    33    1
    44     1     2    1
    45    29    30    1
    46    39    41    1
    47    39    42    1
@<TRIPOS>MOLECULE
*****
 42 47 0 0 0
SMALL
GASTEIGER

@<TRIPOS>ATOM
      1 N          63.2459   91.2006   14.1701 N.pl3   1  UNL1       -0.2801
      2 H          62.4863   91.6422   14.6141 H       1  UNL1        0.1552
      3 C          63.3124   88.6205   13.8717 C.ar    1  UNL1        0.1477
      4 C          63.0158   89.9845   13.3226 C.ar    1  UNL1        0.0846
      5 C          62.4889   90.1325   11.9260 C.ar    1  UNL1        0.0174
      6 C          62.2587   88.9164   11.0785 C.ar    1  UNL1       -0.0031
      7 C          62.5554   87.5524   11.6276 C.ar    1  UNL1       -0.0231
      8 C          63.0822   87.4045   13.0242 C.ar    1  UNL1        0.0091
      9 C          63.4407   86.1476   13.7603 C.3     1  UNL1        0.0305
     10 C          63.3608   84.7283   13.2815 C.3     1  UNL1        0.0207
     11 C          62.9028   84.2153   11.9485 C.3     1  UNL1        0.0583
     12 C          62.4115   84.9949   10.7649 C.3     1  UNL1        0.0206
     13 C          62.2568   86.4801   10.6221 C.3     1  UNL1        0.0275
     14 N          62.9412   82.7258   11.7762 N.3     1  UNL1       -0.2697
     15 C          62.5676   81.8286   12.9189 C.3     1  UNL1        0.1046
     16 C          62.6059   80.3390   12.7467 C.3     1  UNL1        0.1595
     17 O          63.0179   79.7466   11.4317 O.3     1  UNL1       -0.3508
     18 C          63.3915   80.6436   10.2889 C.3     1  UNL1        0.1595
     19 C          63.3531   82.1332   10.4612 C.3     1  UNL1        0.1046
     20 C          63.0226   88.9496   16.4325 C.3     1  UNL1        0.2525
     21 O          63.8393   88.4725   15.2683 O.3     1  UNL1       -0.4705
     22 C          64.6336   91.7438   14.3411 C.ar    1  UNL1        0.2219
     23 N          65.2320   91.8549   15.7121 N.ar    1  UNL1       -0.2110
     24 C          66.6196   92.3980   15.8831 C.ar    1  UNL1        0.1160
     25 C          67.4091   92.8302   14.6830 C.ar    1  UNL1        0.1082
     26 CL         68.7968   93.3734   14.8540 Cl      1  UNL1       -0.0777
     27 C          66.8108   92.7191   13.3120 C.ar    1  UNL1        0.1435
     28 N          65.4231   92.1759   13.1410 N.ar    1  UNL1       -0.1979
     29 N          67.6001   93.1512   12.1119 N.pl3   1  UNL1       -0.3181
     30 H          68.4549   92.7110   11.9004 H       1  UNL1        0.1482
     31 C          67.0871   94.2539   11.2341 C.3     1  UNL1        0.0832
     32 C          67.4108   94.4481    9.7823 C.3     1  UNL1        0.0984
     33 C          66.6840   95.6704    9.3048 C.3     1  UNL1        0.0323
     34 C          65.7572   96.7726    9.7246 C.2     1  UNL1       -0.0304
     35 C          65.4336   96.5784   11.1763 C.2     1  UNL1       -0.0294
     36 C          66.1603   95.3562   11.6538 C.3     1  UNL1        0.0404
     37 C          66.9331   94.7950   10.4971 C.3     1  UNL1        0.0109
     38 C          68.3043   93.5736    8.9535 C.2     1  UNL1        0.2208
     39 N          69.3642   92.7434    9.6149 N.am    1  UNL1       -0.3288
     40 O          68.1380   93.5294    7.4634 O.2     1  UNL1       -0.2753
     41 H          69.4734   92.7724   10.5929 H       1  UNL1        0.1449
     42 H          69.9506   92.1694    9.0709 H       1  UNL1        0.1449
@<TRIPOS>BOND
     1    20    21    1
     2    21     3    1
     3     3     4   ar
     4     4     1    1
     5     1    22    1
     6    22    23   ar
     7    23    24   ar
     8    24    25   ar
     9    25    26    1
    10    25    27   ar
    11    27    29    1
    12    31    29    1
    13    31    32    1
    14    32    38    1
    15    38    39   am
    16    38    40    2
    17    32    33    1
    18    33    34    1
    19    34    35    2
    20    36    35    1
    21    36    37    1
    22    27    28   ar
    23     4     5   ar
    24     5     6   ar
    25     6     7   ar
    26     7     8   ar
    27     8     9    1
    28     9    10    1
    29    10    11    1
    30    11    14    1
    31    14    15    1
    32    15    16    1
    33    16    17    1
    34    17    18    1
    35    18    19    1
    36    11    12    1
    37    12    13    1
    38     8     3   ar
    39    19    14    1
    40    28    22   ar
    41    13     7    1
    42    36    31    1
    43    37    33    1
    44     1     2    1
    45    29    30    1
    46    39    41    1
    47    39    42    1
@<TRIPOS>MOLECULE
*****
 42 47 0 0 0
SMALL
GASTEIGER

@<TRIPOS>ATOM
      1 N          63.6939   91.1643   15.6430 N.pl3   1  UNL1       -0.2801
      2 H          62.9236   91.7748   15.6981 H       1  UNL1        0.1552
      3 C          63.5546   88.8185   14.5348 C.ar    1  UNL1        0.1477
      4 C          63.4869   89.6832   15.7586 C.ar    1  UNL1        0.0846
      5 C          63.2120   89.0667   17.0982 C.ar    1  UNL1        0.0174
      6 C          63.0049   87.5855   17.2139 C.ar    1  UNL1       -0.0031
      7 C          63.0727   86.7209   15.9900 C.ar    1  UNL1       -0.0231
      8 C          63.3475   87.3374   14.6506 C.ar    1  UNL1        0.0091
      9 C          63.4561   86.6629   13.3151 C.3     1  UNL1        0.0305
     10 C          63.3165   85.2053   12.9895 C.3     1  UNL1        0.0207
     11 C          63.0340   84.0623   13.9187 C.3     1  UNL1        0.0583
     12 C          62.8212   84.0945   15.4032 C.3     1  UNL1        0.0206
     13 C          62.8384   85.2777   16.3251 C.3     1  UNL1        0.0275
     14 N          62.9535   82.7080   13.2790 N.3     1  UNL1       -0.2697
     15 C          63.2954   82.5424   11.8278 C.3     1  UNL1        0.1046
     16 C          63.2150   81.1881   11.1880 C.3     1  UNL1        0.1595
     17 O          62.7927   79.9993   11.9994 O.3     1  UNL1       -0.3508
     18 C          62.4508   80.1647   13.4506 C.3     1  UNL1        0.1595
     19 C          62.5312   81.5191   14.0903 C.3     1  UNL1        0.1046
     20 C          62.7179   90.0862   12.4270 C.3     1  UNL1        0.2525
     21 O          63.8295   89.4349   13.1952 O.3     1  UNL1       -0.4705
     22 C          65.0748   91.7151   15.4434 C.ar    1  UNL1        0.2219
     23 N          65.8551   92.2270   16.6178 N.ar    1  UNL1       -0.2110
     24 C          67.2359   92.7778   16.4182 C.ar    1  UNL1        0.1160
     25 C          67.8365   92.8168   15.0442 C.ar    1  UNL1        0.1082
     26 CL         69.2173   93.3677   14.8446 Cl      1  UNL1       -0.0777
     27 C          67.0562   92.3050   13.8698 C.ar    1  UNL1        0.1435
     28 N          65.6753   91.7541   14.0694 N.ar    1  UNL1       -0.1979
     29 N          67.6567   92.3439   12.4958 N.pl3   1  UNL1       -0.3181
     30 H          68.3592   91.7005   12.2472 H       1  UNL1        0.1482
     31 C          67.1869   93.3631   11.5006 C.3     1  UNL1        0.0832
     32 C          67.5462   93.4048   10.0449 C.3     1  UNL1        0.0984
     33 C          66.8567   94.5871    9.4309 C.3     1  UNL1        0.0323
     34 C          65.9451   95.7435    9.7167 C.2     1  UNL1       -0.0304
     35 C          65.5858   95.7018   11.1724 C.2     1  UNL1       -0.0294
     36 C          66.2753   94.5195   11.7863 C.3     1  UNL1        0.0404
     37 C          67.0608   93.8306   10.7100 C.3     1  UNL1        0.0109
     38 C          68.4384   92.4346    9.3287 C.2     1  UNL1        0.2208
     39 N          69.9097   92.7068    9.2219 N.am    1  UNL1       -0.3288
     40 O          67.8594   91.1923    8.7194 O.2     1  UNL1       -0.2753
     41 H          70.2897   93.5223    9.6218 H       1  UNL1        0.1449
     42 H          70.4952   92.0701    8.7519 H       1  UNL1        0.1449
@<TRIPOS>BOND
     1    20    21    1
     2    21     3    1
     3     3     4   ar
     4     4     1    1
     5     1    22    1
     6    22    23   ar
     7    23    24   ar
     8    24    25   ar
     9    25    26    1
    10    25    27   ar
    11    27    29    1
    12    31    29    1
    13    31    32    1
    14    32    38    1
    15    38    39   am
    16    38    40    2
    17    32    33    1
    18    33    34    1
    19    34    35    2
    20    36    35    1
    21    36    37    1
    22    27    28   ar
    23     4     5   ar
    24     5     6   ar
    25     6     7   ar
    26     7     8   ar
    27     8     9    1
    28     9    10    1
    29    10    11    1
    30    11    14    1
    31    14    15    1
    32    15    16    1
    33    16    17    1
    34    17    18    1
    35    18    19    1
    36    11    12    1
    37    12    13    1
    38     8     3   ar
    39    19    14    1
    40    28    22   ar
    41    13     7    1
    42    36    31    1
    43    37    33    1
    44     1     2    1
    45    29    30    1
    46    39    41    1
    47    39    42    1
@<TRIPOS>MOLECULE
*****
 42 47 0 0 0
SMALL
GASTEIGER

@<TRIPOS>ATOM
      1 N          62.5212   89.1176   16.0567 N.pl3   1  UNL1       -0.2801
      2 H          61.6394   89.3550   16.4244 H       1  UNL1        0.1552
      3 C          63.5416   90.4342   14.0627 C.ar    1  UNL1        0.1477
      4 C          63.4316   90.1914   15.5389 C.ar    1  UNL1        0.0846
      5 C          64.2321   91.0225   16.4973 C.ar    1  UNL1        0.0174
      6 C          65.1426   92.0963   15.9796 C.ar    1  UNL1       -0.0031
      7 C          65.2525   92.3391   14.5034 C.ar    1  UNL1       -0.0231
      8 C          64.4520   91.5081   13.5451 C.ar    1  UNL1        0.0091
      9 C          64.4134   91.5842   12.0474 C.3     1  UNL1        0.0305
     10 C          65.1659   92.5103   11.1384 C.3     1  UNL1        0.0207
     11 C          66.1427   93.5887   11.5025 C.3     1  UNL1        0.0583
     12 C          66.6084   94.0077   12.8654 C.3     1  UNL1        0.0206
     13 C          66.2122   93.4515   14.2010 C.3     1  UNL1        0.0275
     14 N          66.7318   94.3489   10.3513 N.3     1  UNL1       -0.2697
     15 C          67.3979   93.6113    9.2277 C.3     1  UNL1        0.1046
     16 C          67.9870   94.3714    8.0766 C.3     1  UNL1        0.1595
     17 O          67.9100   95.8692    8.0490 O.3     1  UNL1       -0.3508
     18 C          67.2439   96.6068    9.1725 C.3     1  UNL1        0.1595
     19 C          66.6548   95.8467   10.3237 C.3     1  UNL1        0.1046
     20 C          61.5732   90.2071   12.3823 C.3     1  UNL1        0.2525
     21 O          62.7410   89.6032   13.1043 O.3     1  UNL1       -0.4705
     22 C          62.9545   87.6822   16.0140 C.ar    1  UNL1        0.2219
     23 N          62.7397   86.7981   17.2067 N.ar    1  UNL1       -0.2110
     24 C          63.1729   85.3628   17.1641 C.ar    1  UNL1        0.1160
     25 C          63.8209   84.8113   15.9288 C.ar    1  UNL1        0.1082
     26 CL         64.2542   83.3758   15.8862 Cl      1  UNL1       -0.0777
     27 C          64.0357   85.6952   14.7361 C.ar    1  UNL1        0.1435
     28 N          63.6025   87.1307   14.7787 N.ar    1  UNL1       -0.1979
     29 N          64.6836   85.1438   13.5007 N.pl3   1  UNL1       -0.3181
     30 H          65.5412   85.5128   13.1882 H       1  UNL1        0.1482
     31 C          64.0251   84.0303   12.7417 C.3     1  UNL1        0.0832
     32 C          63.0557   84.1887   11.6080 C.3     1  UNL1        0.0984
     33 C          62.6518   82.8191   11.1486 C.3     1  UNL1        0.0323
     34 C          62.8471   81.3515   11.3899 C.2     1  UNL1       -0.0304
     35 C          63.8165   81.1931   12.5235 C.2     1  UNL1       -0.0294
     36 C          64.2204   82.5627   12.9829 C.3     1  UNL1        0.0404
     37 C          63.5005   83.5677   12.1331 C.3     1  UNL1        0.0109
     38 C          62.5746   85.4886   11.0344 C.2     1  UNL1        0.2208
     39 N          61.9855   86.5335   11.9350 N.am    1  UNL1       -0.3288
     40 O          62.6827   85.7435    9.5602 O.2     1  UNL1       -0.2753
     41 H          61.9146   86.3661   12.9026 H       1  UNL1        0.1449
     42 H          61.6697   87.3866   11.5586 H       1  UNL1        0.1449
@<TRIPOS>BOND
     1    20    21    1
     2    21     3    1
     3     3     4   ar
     4     4     1    1
     5     1    22    1
     6    22    23   ar
     7    23    24   ar
     8    24    25   ar
     9    25    26    1
    10    25    27   ar
    11    27    29    1
    12    31    29    1
    13    31    32    1
    14    32    38    1
    15    38    39   am
    16    38    40    2
    17    32    33    1
    18    33    34    1
    19    34    35    2
    20    36    35    1
    21    36    37    1
    22    27    28   ar
    23     4     5   ar
    24     5     6   ar
    25     6     7   ar
    26     7     8   ar
    27     8     9    1
    28     9    10    1
    29    10    11    1
    30    11    14    1
    31    14    15    1
    32    15    16    1
    33    16    17    1
    34    17    18    1
    35    18    19    1
    36    11    12    1
    37    12    13    1
    38     8     3   ar
    39    19    14    1
    40    28    22   ar
    41    13     7    1
    42    36    31    1
    43    37    33    1
    44     1     2    1
    45    29    30    1
    46    39    41    1
    47    39    42    1
@<TRIPOS>MOLECULE
*****
 42 47 0 0 0
SMALL
GASTEIGER

@<TRIPOS>ATOM
      1 N          62.7615   90.6544   12.1012 N.pl3   1  UNL1       -0.2801
      2 H          61.8254   90.9511   12.0316 H       1  UNL1        0.1552
      3 C          62.5713   88.1031   11.6485 C.ar    1  UNL1        0.1477
      4 C          63.0729   89.2394   12.4895 C.ar    1  UNL1        0.0846
      5 C          63.8859   88.9606   13.7189 C.ar    1  UNL1        0.0174
      6 C          64.1973   87.5456   14.1073 C.ar    1  UNL1       -0.0031
      7 C          63.6956   86.4093   13.2662 C.ar    1  UNL1       -0.0231
      8 C          62.8827   86.6881   12.0369 C.ar    1  UNL1        0.0091
      9 C          62.2899   85.7103   11.0660 C.3     1  UNL1        0.0305
     10 C          62.3638   84.2121   11.0848 C.3     1  UNL1        0.0207
     11 C          63.0486   83.3220   12.0790 C.3     1  UNL1        0.0583
     12 C          63.8287   83.7099   13.3000 C.3     1  UNL1        0.0206
     13 C          64.1167   85.0839   13.8284 C.3     1  UNL1        0.0275
     14 N          62.9388   81.8490   11.8176 N.3     1  UNL1       -0.2697
     15 C          62.6082   80.9106   12.9403 C.3     1  UNL1        0.1046
     16 C          62.4983   79.4377   12.6789 C.3     1  UNL1        0.1595
     17 O          62.7191   78.9031   11.2949 O.3     1  UNL1       -0.3508
     18 C          63.0497   79.8414   10.1723 C.3     1  UNL1        0.1595
     19 C          63.1595   81.3143   10.4336 C.3     1  UNL1        0.1046
     20 C          60.2711   88.5458   10.5247 C.3     1  UNL1        0.2525
     21 O          61.7583   88.3818   10.4191 O.3     1  UNL1       -0.4705
     22 C          63.8765   91.6172   11.8189 C.ar    1  UNL1        0.2219
     23 N          64.3552   91.8189   10.4116 N.ar    1  UNL1       -0.2110
     24 C          65.4701   92.7817   10.1293 C.ar    1  UNL1        0.1160
     25 C          66.1066   93.5429   11.2542 C.ar    1  UNL1        0.1082
     26 CL         67.2216   94.5057   10.9719 Cl      1  UNL1       -0.0777
     27 C          65.6280   93.3413   12.6615 C.ar    1  UNL1        0.1435
     28 N          64.5130   92.3784   12.9438 N.ar    1  UNL1       -0.1979
     29 N          66.2645   94.1025   13.7865 N.pl3   1  UNL1       -0.3181
     30 H          66.1282   95.0745   13.8621 H       1  UNL1        0.1482
     31 C          67.1084   93.3827   14.7961 C.3     1  UNL1        0.0832
     32 C          66.6014   92.5663   15.9478 C.3     1  UNL1        0.0984
     33 C          67.7872   92.0319   16.6949 C.3     1  UNL1        0.0323
     34 C          69.2865   92.0020   16.7301 C.2     1  UNL1       -0.0304
     35 C          69.7936   92.8184   15.5784 C.2     1  UNL1       -0.0294
     36 C          68.6077   93.3528   14.8314 C.3     1  UNL1        0.0404
     37 C          67.3677   92.8667   15.5214 C.3     1  UNL1        0.0109
     38 C          65.1612   92.3264   16.2921 C.2     1  UNL1        0.2208
     39 N          64.4026   91.2223   15.6172 N.am    1  UNL1       -0.3288
     40 O          64.4797   93.1906   17.3112 O.2     1  UNL1       -0.2753
     41 H          64.8499   90.6550   14.9483 H       1  UNL1        0.1449
     42 H          63.4574   91.0648   15.8431 H       1  UNL1        0.1449
@<TRIPOS>BOND
     1    20    21    1
     2    21     3    1
     3     3     4   ar
     4     4     1    1
     5     1    22    1
     6    22    23   ar
     7    23    24   ar
     8    24    25   ar
     9    25    26    1
    10    25    27   ar
    11    27    29    1
    12    31    29    1
    13    31    32    1
    14    32    38    1
    15    38    39   am
    16    38    40    2
    17    32    33    1
    18    33    34    1
    19    34    35    2
    20    36    35    1
    21    36    37    1
    22    27    28   ar
    23     4     5   ar
    24     5     6   ar
    25     6     7   ar
    26     7     8   ar
    27     8     9    1
    28     9    10    1
    29    10    11    1
    30    11    14    1
    31    14    15    1
    32    15    16    1
    33    16    17    1
    34    17    18    1
    35    18    19    1
    36    11    12    1
    37    12    13    1
    38     8     3   ar
    39    19    14    1
    40    28    22   ar
    41    13     7    1
    42    36    31    1
    43    37    33    1
    44     1     2    1
    45    29    30    1
    46    39    41    1
    47    39    42    1
@<TRIPOS>MOLECULE
*****
 42 47 0 0 0
SMALL
GASTEIGER

@<TRIPOS>ATOM
      1 N          62.5826   83.8006   15.9528 N.pl3   1  UNL1       -0.2801
      2 H          62.3191   83.2468   16.7229 H       1  UNL1        0.1552
      3 C          63.7022   86.0238   15.2083 C.ar    1  UNL1        0.1477
      4 C          62.7760   85.2783   16.1229 C.ar    1  UNL1        0.0846
      5 C          62.0432   86.0106   17.2077 C.ar    1  UNL1        0.0174
      6 C          62.2365   87.4884   17.3779 C.ar    1  UNL1       -0.0031
      7 C          63.1627   88.2338   16.4633 C.ar    1  UNL1       -0.0231
      8 C          63.8955   87.5015   15.3786 C.ar    1  UNL1        0.0091
      9 C          64.8578   88.0485   14.3661 C.3     1  UNL1        0.0305
     10 C          65.3249   89.4629   14.1885 C.3     1  UNL1        0.0207
     11 C          64.9451   90.6794   14.9794 C.3     1  UNL1        0.0583
     12 C          64.0044   90.7823   16.1432 C.3     1  UNL1        0.0206
     13 C          63.2111   89.6939   16.8036 C.3     1  UNL1        0.0275
     14 N          65.5914   91.9630   14.5496 N.3     1  UNL1       -0.2697
     15 C          65.3776   92.4814   13.1583 C.3     1  UNL1        0.1046
     16 C          66.0239   93.7649   12.7285 C.3     1  UNL1        0.1595
     17 O          66.8841   94.5301   13.6900 O.3     1  UNL1       -0.3508
     18 C          67.0980   94.0118   15.0813 C.3     1  UNL1        0.1595
     19 C          66.4517   92.7282   15.5111 C.3     1  UNL1        0.1046
     20 C          65.7997   84.7283   14.3886 C.3     1  UNL1        0.2525
     21 O          64.4350   85.2916   14.1235 O.3     1  UNL1       -0.4705
     22 C          62.7907   83.1668   14.6093 C.ar    1  UNL1        0.2219
     23 N          63.5226   81.8619   14.5008 N.ar    1  UNL1       -0.2110
     24 C          63.7307   81.2281   13.1574 C.ar    1  UNL1        0.1160
     25 C          63.2069   81.8992   11.9223 C.ar    1  UNL1        0.1082
     26 CL         63.4151   81.2654   10.5788 Cl      1  UNL1       -0.0777
     27 C          62.4751   83.2041   12.0307 C.ar    1  UNL1        0.1435
     28 N          62.2670   83.8379   13.3742 N.ar    1  UNL1       -0.1979
     29 N          61.9514   83.8752   10.7957 N.pl3   1  UNL1       -0.3181
     30 H          61.5222   83.3404   10.0893 H       1  UNL1        0.1482
     31 C          62.0815   85.3611   10.6370 C.3     1  UNL1        0.0832
     32 C          61.8306   86.1387    9.3791 C.3     1  UNL1        0.0984
     33 C          62.0794   87.5885    9.6730 C.3     1  UNL1        0.0323
     34 C          62.4832   88.5576   10.7443 C.2     1  UNL1       -0.0304
     35 C          62.7341   87.7799   12.0022 C.2     1  UNL1       -0.0294
     36 C          62.4853   86.3302   11.7083 C.3     1  UNL1        0.0404
     37 C          62.0807   86.2119   10.2687 C.3     1  UNL1        0.0109
     38 C          61.4055   85.5670    8.0590 C.2     1  UNL1        0.2208
     39 N          59.9811   85.6996    7.6080 N.am    1  UNL1       -0.3288
     40 O          62.4050   84.8628    7.1900 O.2     1  UNL1       -0.2753
     41 H          59.3252   86.1619    8.1784 H       1  UNL1        0.1449
     42 H          59.7021   85.3244    6.7416 H       1  UNL1        0.1449
@<TRIPOS>BOND
     1    20    21    1
     2    21     3    1
     3     3     4   ar
     4     4     1    1
     5     1    22    1
     6    22    23   ar
     7    23    24   ar
     8    24    25   ar
     9    25    26    1
    10    25    27   ar
    11    27    29    1
    12    31    29    1
    13    31    32    1
    14    32    38    1
    15    38    39   am
    16    38    40    2
    17    32    33    1
    18    33    34    1
    19    34    35    2
    20    36    35    1
    21    36    37    1
    22    27    28   ar
    23     4     5   ar
    24     5     6   ar
    25     6     7   ar
    26     7     8   ar
    27     8     9    1
    28     9    10    1
    29    10    11    1
    30    11    14    1
    31    14    15    1
    32    15    16    1
    33    16    17    1
    34    17    18    1
    35    18    19    1
    36    11    12    1
    37    12    13    1
    38     8     3   ar
    39    19    14    1
    40    28    22   ar
    41    13     7    1
    42    36    31    1
    43    37    33    1
    44     1     2    1
    45    29    30    1
    46    39    41    1
    47    39    42    1
