@<TRIPOS>MOLECULE
*****
 22 24 0 0 0
SMALL
GASTEIGER

@<TRIPOS>ATOM
      1 C          62.1724   88.8538   11.3582 C.3     1  UNL1        0.1954
      2 C          63.1118   89.4070   12.3885 C.ar    1  UNL1        0.0468
      3 C          63.7596   88.6320   13.4974 C.ar    1  UNL1        0.0062
      4 C          64.6166   89.5783   14.2851 C.ar    1  UNL1        0.0073
      5 C          64.4983   90.9381   13.6629 C.ar    1  UNL1        0.0352
      6 S          63.5683   90.8322   12.4907 S.2     1  UNL1       -0.0873
      7 C          61.7397   89.7069   10.2027 C.3     1  UNL1        0.0658
      8 C          60.3339   89.6148    9.6875 C.3     1  UNL1        0.0727
      9 C          59.3876   88.3380    7.6322 C.3     1  UNL1        0.0859
     10 N          60.0798   89.5361    8.2113 N.3     1  UNL1       -0.2962
     11 H          59.5154   90.3495    7.9659 H       1  UNL1        0.1233
     12 O          61.6657   87.4475   11.4833 O.3     1  UNL1       -0.4742
     13 C          62.2670   86.3565   10.6478 C.ar    1  UNL1        0.1388
     14 C          62.2761   86.4754    9.1526 C.ar    1  UNL1        0.0369
     15 C          62.8774   85.3844    8.3171 C.ar    1  UNL1        0.0031
     16 C          63.4697   84.1744    8.9768 C.ar    1  UNL1        0.0002
     17 C          63.4606   84.0555   10.4721 C.ar    1  UNL1        0.0029
     18 C          64.0528   82.8456   11.1319 C.ar    1  UNL1        0.0001
     19 C          64.0438   82.7267   12.6271 C.ar    1  UNL1        0.0000
     20 C          63.4424   83.8177   13.4626 C.ar    1  UNL1        0.0001
     21 C          62.8502   85.0277   12.8029 C.ar    1  UNL1        0.0030
     22 C          62.8593   85.1465   11.3076 C.ar    1  UNL1        0.0340
@<TRIPOS>BOND
     1     9    10    1
     2    10     8    1
     3     8     7    1
     4     1     7    1
     5     1    12    1
     6    12    13    1
     7    13    14   ar
     8    14    15   ar
     9    15    16   ar
    10    16    17   ar
    11    17    18   ar
    12    18    19   ar
    13    19    20   ar
    14    20    21   ar
    15    21    22   ar
    16     1     2    1
    17     2     3   ar
    18     3     4   ar
    19     4     5   ar
    20     5     6   ar
    21    22    13   ar
    22     6     2   ar
    23    22    17   ar
    24    10    11    1
@<TRIPOS>MOLECULE
*****
 22 24 0 0 0
SMALL
GASTEIGER

@<TRIPOS>ATOM
      1 C          61.5844   87.7023   10.5431 C.3     1  UNL1        0.1954
      2 C          60.6272   87.7354    9.3887 C.ar    1  UNL1        0.0468
      3 C          59.9607   86.5468    8.7617 C.ar    1  UNL1        0.0062
      4 C          59.0900   87.0396    7.6440 C.ar    1  UNL1        0.0073
      5 C          59.2184   88.5328    7.5803 C.ar    1  UNL1        0.0352
      6 S          60.1684   88.9628    8.6586 S.2     1  UNL1       -0.0873
      7 C          62.4994   88.8645   10.7922 C.3     1  UNL1        0.0658
      8 C          62.9042   89.2134   12.1939 C.3     1  UNL1        0.0727
      9 C          64.2373   88.6063   14.3396 C.3     1  UNL1        0.0859
     10 N          63.5848   88.1907   13.0545 N.3     1  UNL1       -0.2962
     11 H          62.8813   87.4921   13.2940 H       1  UNL1        0.1233
     12 O          61.6266   86.5071   11.4484 O.3     1  UNL1       -0.4742
     13 C          62.4741   85.3230   11.0883 C.ar    1  UNL1        0.1388
     14 C          62.9157   85.1206    9.6692 C.ar    1  UNL1        0.0369
     15 C          63.7632   83.9365    9.3091 C.ar    1  UNL1        0.0031
     16 C          64.1692   82.9549   10.3681 C.ar    1  UNL1        0.0002
     17 C          63.7276   83.1573   11.7873 C.ar    1  UNL1        0.0029
     18 C          64.1335   82.1757   12.8463 C.ar    1  UNL1        0.0001
     19 C          63.6919   82.3781   14.2654 C.ar    1  UNL1        0.0000
     20 C          62.8444   83.5622   14.6256 C.ar    1  UNL1        0.0001
     21 C          62.4385   84.5438   13.5665 C.ar    1  UNL1        0.0030
     22 C          62.8800   84.3414   12.1474 C.ar    1  UNL1        0.0340
@<TRIPOS>BOND
     1     9    10    1
     2    10     8    1
     3     8     7    1
     4     1     7    1
     5     1    12    1
     6    12    13    1
     7    13    14   ar
     8    14    15   ar
     9    15    16   ar
    10    16    17   ar
    11    17    18   ar
    12    18    19   ar
    13    19    20   ar
    14    20    21   ar
    15    21    22   ar
    16     1     2    1
    17     2     3   ar
    18     3     4   ar
    19     4     5   ar
    20     5     6   ar
    21    22    13   ar
    22     6     2   ar
    23    22    17   ar
    24    10    11    1
@<TRIPOS>MOLECULE
*****
 22 24 0 0 0
SMALL
GASTEIGER

@<TRIPOS>ATOM
      1 C          65.6026   92.5611   12.7112 C.3     1  UNL1        0.1954
      2 C          66.7309   92.6887   13.6915 C.ar    1  UNL1        0.0468
      3 C          67.9706   91.8450   13.7235 C.ar    1  UNL1        0.0062
      4 C          68.8234   92.3173   14.8636 C.ar    1  UNL1        0.0073
      5 C          68.1106   93.4529   15.5362 C.ar    1  UNL1        0.0352
      6 S          66.8174   93.6824   14.8118 S.2     1  UNL1       -0.0873
      7 C          65.7989   92.9770   11.2835 C.3     1  UNL1        0.0658
      8 C          66.3656   94.3294   10.9674 C.3     1  UNL1        0.0727
      9 C          68.0123   93.2931    9.2457 C.3     1  UNL1        0.0859
     10 N          67.5850   94.4481   10.1021 N.3     1  UNL1       -0.2962
     11 H          67.4255   95.2365    9.4749 H       1  UNL1        0.1233
     12 O          64.2781   92.0176   13.1588 O.3     1  UNL1       -0.4742
     13 C          64.0700   90.5353   13.2564 C.ar    1  UNL1        0.1388
     14 C          64.5927   89.7811   14.4429 C.ar    1  UNL1        0.0369
     15 C          64.3845   88.2988   14.5405 C.ar    1  UNL1        0.0031
     16 C          63.6537   87.5707   13.4516 C.ar    1  UNL1        0.0002
     17 C          63.1309   88.3250   12.2650 C.ar    1  UNL1        0.0029
     18 C          62.4001   87.5969   11.1760 C.ar    1  UNL1        0.0001
     19 C          61.8774   88.3512    9.9895 C.ar    1  UNL1        0.0000
     20 C          62.0856   89.8335    9.8919 C.ar    1  UNL1        0.0001
     21 C          62.8164   90.5615   10.9808 C.ar    1  UNL1        0.0030
     22 C          63.3391   89.8073   12.1674 C.ar    1  UNL1        0.0340
@<TRIPOS>BOND
     1     9    10    1
     2    10     8    1
     3     8     7    1
     4     1     7    1
     5     1    12    1
     6    12    13    1
     7    13    14   ar
     8    14    15   ar
     9    15    16   ar
    10    16    17   ar
    11    17    18   ar
    12    18    19   ar
    13    19    20   ar
    14    20    21   ar
    15    21    22   ar
    16     1     2    1
    17     2     3   ar
    18     3     4   ar
    19     4     5   ar
    20     5     6   ar
    21    22    13   ar
    22     6     2   ar
    23    22    17   ar
    24    10    11    1
@<TRIPOS>MOLECULE
*****
 22 24 0 0 0
SMALL
GASTEIGER

@<TRIPOS>ATOM
      1 C          63.2822   84.2260   13.5529 C.3     1  UNL1        0.1954
      2 C          62.8951   82.7803   13.6537 C.ar    1  UNL1        0.0468
      3 C          61.6588   82.2425   14.3111 C.ar    1  UNL1        0.0062
      4 C          61.6758   80.7484   14.1785 C.ar    1  UNL1        0.0073
      5 C          62.9227   80.3629   13.4390 C.ar    1  UNL1        0.0352
      6 S          63.6762   81.6187   13.1147 S.2     1  UNL1       -0.0873
      7 C          64.5312   84.7164   14.2234 C.3     1  UNL1        0.0658
      8 C          64.5590   86.0770   14.8543 C.3     1  UNL1        0.0727
      9 C          64.2918   88.6487   14.5995 C.3     1  UNL1        0.0859
     10 N          64.0065   87.2586   14.1137 N.3     1  UNL1       -0.2962
     11 H          64.3630   87.2011   13.1597 H       1  UNL1        0.1233
     12 O          62.4204   85.1812   12.7817 O.3     1  UNL1       -0.4742
     13 C          62.5014   85.2232   11.2844 C.ar    1  UNL1        0.1388
     14 C          63.4008   84.2698   10.5550 C.ar    1  UNL1        0.0369
     15 C          63.4817   84.3118    9.0577 C.ar    1  UNL1        0.0031
     16 C          62.6633   85.3071    8.2900 C.ar    1  UNL1        0.0002
     17 C          61.7638   86.2605    9.0195 C.ar    1  UNL1        0.0029
     18 C          60.9454   87.2558    8.2517 C.ar    1  UNL1        0.0001
     19 C          60.0460   88.2092    8.9812 C.ar    1  UNL1        0.0000
     20 C          59.9651   88.1672   10.4785 C.ar    1  UNL1        0.0001
     21 C          60.7835   87.1719   11.2462 C.ar    1  UNL1        0.0030
     22 C          61.6829   86.2186   10.5167 C.ar    1  UNL1        0.0340
@<TRIPOS>BOND
     1     9    10    1
     2    10     8    1
     3     8     7    1
     4     1     7    1
     5     1    12    1
     6    12    13    1
     7    13    14   ar
     8    14    15   ar
     9    15    16   ar
    10    16    17   ar
    11    17    18   ar
    12    18    19   ar
    13    19    20   ar
    14    20    21   ar
    15    21    22   ar
    16     1     2    1
    17     2     3   ar
    18     3     4   ar
    19     4     5   ar
    20     5     6   ar
    21    22    13   ar
    22     6     2   ar
    23    22    17   ar
    24    10    11    1
@<TRIPOS>MOLECULE
*****
 22 24 0 0 0
SMALL
GASTEIGER

@<TRIPOS>ATOM
      1 C          65.2978   92.1245   12.8203 C.3     1  UNL1        0.1954
      2 C          66.3241   92.2237   13.9099 C.ar    1  UNL1        0.0468
      3 C          67.7930   91.9570   13.7643 C.ar    1  UNL1        0.0062
      4 C          68.4384   92.1755   15.1007 C.ar    1  UNL1        0.0073
      5 C          67.3683   92.5772   16.0721 C.ar    1  UNL1        0.0352
      6 S          66.0616   92.6071   15.3361 S.2     1  UNL1       -0.0873
      7 C          65.6407   92.5566   11.4255 C.3     1  UNL1        0.0658
      8 C          66.1029   93.9602   11.1673 C.3     1  UNL1        0.0727
      9 C          67.4826   95.3120    9.4299 C.3     1  UNL1        0.0859
     10 N          67.3898   94.2035   10.4361 N.3     1  UNL1       -0.2962
     11 H          68.1003   94.3884   11.1442 H       1  UNL1        0.1233
     12 O          63.9287   91.5932   13.1257 O.3     1  UNL1       -0.4742
     13 C          63.3870   90.4275   12.3527 C.ar    1  UNL1        0.1388
     14 C          62.6760   90.6555   11.0517 C.ar    1  UNL1        0.0369
     15 C          62.1343   89.4898   10.2787 C.ar    1  UNL1        0.0031
     16 C          62.3035   88.0961   10.8066 C.ar    1  UNL1        0.0002
     17 C          63.0144   87.8679   12.1076 C.ar    1  UNL1        0.0029
     18 C          63.1836   86.4742   12.6355 C.ar    1  UNL1        0.0001
     19 C          63.8946   86.2461   13.9365 C.ar    1  UNL1        0.0000
     20 C          64.4363   87.4119   14.7095 C.ar    1  UNL1        0.0001
     21 C          64.2672   88.8056   14.1816 C.ar    1  UNL1        0.0030
     22 C          63.5562   89.0337   12.8806 C.ar    1  UNL1        0.0340
@<TRIPOS>BOND
     1     9    10    1
     2    10     8    1
     3     8     7    1
     4     1     7    1
     5     1    12    1
     6    12    13    1
     7    13    14   ar
     8    14    15   ar
     9    15    16   ar
    10    16    17   ar
    11    17    18   ar
    12    18    19   ar
    13    19    20   ar
    14    20    21   ar
    15    21    22   ar
    16     1     2    1
    17     2     3   ar
    18     3     4   ar
    19     4     5   ar
    20     5     6   ar
    21    22    13   ar
    22     6     2   ar
    23    22    17   ar
    24    10    11    1
@<TRIPOS>MOLECULE
*****
 22 24 0 0 0
SMALL
GASTEIGER

@<TRIPOS>ATOM
      1 C          63.5237   84.8367   13.1494 C.3     1  UNL1        0.1954
      2 C          63.0195   83.4295   13.2744 C.ar    1  UNL1        0.0468
      3 C          62.1982   82.8845   14.4051 C.ar    1  UNL1        0.0062
      4 C          61.9191   81.4384   14.1203 C.ar    1  UNL1        0.0073
      5 C          62.5679   81.0898   12.8135 C.ar    1  UNL1        0.0352
      6 S          63.2480   82.3203   12.2908 S.2     1  UNL1       -0.0873
      7 C          63.1164   85.6778   11.9761 C.3     1  UNL1        0.0658
      8 C          61.6892   85.6802   11.5145 C.3     1  UNL1        0.0727
      9 C          60.4449   87.6827   10.4229 C.3     1  UNL1        0.0859
     10 N          60.8599   86.9230   11.6478 N.3     1  UNL1       -0.2962
     11 H          60.0032   86.6548   12.1322 H       1  UNL1        0.1233
     12 O          64.4353   85.4026   14.1976 O.3     1  UNL1       -0.4742
     13 C          63.8642   86.1690   15.3536 C.ar    1  UNL1        0.1388
     14 C          63.2883   85.4356   16.5285 C.ar    1  UNL1        0.0369
     15 C          62.7172   86.2020   17.6846 C.ar    1  UNL1        0.0031
     16 C          62.7221   87.7018   17.6658 C.ar    1  UNL1        0.0002
     17 C          63.2980   88.4354   16.4909 C.ar    1  UNL1        0.0029
     18 C          63.3029   89.9352   16.4721 C.ar    1  UNL1        0.0001
     19 C          63.8788   90.6686   15.2973 C.ar    1  UNL1        0.0000
     20 C          64.4499   89.9022   14.1412 C.ar    1  UNL1        0.0001
     21 C          64.4450   88.4024   14.1600 C.ar    1  UNL1        0.0030
     22 C          63.8691   87.6690   15.3348 C.ar    1  UNL1        0.0340
@<TRIPOS>BOND
     1     9    10    1
     2    10     8    1
     3     8     7    1
     4     1     7    1
     5     1    12    1
     6    12    13    1
     7    13    14   ar
     8    14    15   ar
     9    15    16   ar
    10    16    17   ar
    11    17    18   ar
    12    18    19   ar
    13    19    20   ar
    14    20    21   ar
    15    21    22   ar
    16     1     2    1
    17     2     3   ar
    18     3     4   ar
    19     4     5   ar
    20     5     6   ar
    21    22    13   ar
    22     6     2   ar
    23    22    17   ar
    24    10    11    1
@<TRIPOS>MOLECULE
*****
 22 24 0 0 0
SMALL
GASTEIGER

@<TRIPOS>ATOM
      1 C          63.5605   84.7018   13.0520 C.3     1  UNL1        0.1954
      2 C          63.5646   83.5176   12.1312 C.ar    1  UNL1        0.0468
      3 C          64.3581   83.3883   10.8648 C.ar    1  UNL1        0.0062
      4 C          64.0599   82.0456   10.2661 C.ar    1  UNL1        0.0073
      5 C          63.0822   81.3452   11.1625 C.ar    1  UNL1        0.0352
      6 S          62.7761   82.2549   12.3152 S.2     1  UNL1       -0.0873
      7 C          64.6753   84.8891   14.0379 C.3     1  UNL1        0.0658
      8 C          64.4414   85.6750   15.2941 C.3     1  UNL1        0.0727
      9 C          62.8892   86.3640   17.2602 C.3     1  UNL1        0.0859
     10 N          63.1106   85.6093   15.9830 N.3     1  UNL1       -0.2962
     11 H          62.4169   85.9484   15.3165 H       1  UNL1        0.1233
     12 O          62.4415   85.6986   12.9867 O.3     1  UNL1       -0.4742
     13 C          62.1580   86.4251   11.7054 C.ar    1  UNL1        0.1388
     14 C          61.4897   85.7092   10.5693 C.ar    1  UNL1        0.0369
     15 C          61.2062   86.4356    9.2880 C.ar    1  UNL1        0.0031
     16 C          61.5910   87.8781    9.1427 C.ar    1  UNL1        0.0002
     17 C          62.2594   88.5942   10.2788 C.ar    1  UNL1        0.0029
     18 C          62.6443   90.0366   10.1335 C.ar    1  UNL1        0.0001
     19 C          63.3126   90.7526   11.2695 C.ar    1  UNL1        0.0000
     20 C          63.5961   90.0261   12.5508 C.ar    1  UNL1        0.0001
     21 C          63.2113   88.5836   12.6961 C.ar    1  UNL1        0.0030
     22 C          62.5429   87.8677   11.5601 C.ar    1  UNL1        0.0340
@<TRIPOS>BOND
     1     9    10    1
     2    10     8    1
     3     8     7    1
     4     1     7    1
     5     1    12    1
     6    12    13    1
     7    13    14   ar
     8    14    15   ar
     9    15    16   ar
    10    16    17   ar
    11    17    18   ar
    12    18    19   ar
    13    19    20   ar
    14    20    21   ar
    15    21    22   ar
    16     1     2    1
    17     2     3   ar
    18     3     4   ar
    19     4     5   ar
    20     5     6   ar
    21    22    13   ar
    22     6     2   ar
    23    22    17   ar
    24    10    11    1
@<TRIPOS>MOLECULE
*****
 22 24 0 0 0
SMALL
GASTEIGER

@<TRIPOS>ATOM
      1 C          62.4207   86.0141   10.7432 C.3     1  UNL1        0.1954
      2 C          62.9054   84.8041   11.4855 C.ar    1  UNL1        0.0468
      3 C          63.5027   83.5732   10.8705 C.ar    1  UNL1        0.0062
      4 C          63.8444   82.6209   11.9780 C.ar    1  UNL1        0.0073
      5 C          63.4581   83.2633   13.2774 C.ar    1  UNL1        0.0352
      6 S          62.8778   84.6125   12.9729 S.2     1  UNL1       -0.0873
      7 C          62.5657   86.0871    9.2520 C.3     1  UNL1        0.0658
      8 C          61.3509   86.0081    8.3755 C.3     1  UNL1        0.0727
      9 C          58.9807   86.9323    7.8483 C.3     1  UNL1        0.0859
     10 N          60.0496   86.5894    8.8432 N.3     1  UNL1       -0.2962
     11 H          59.6426   85.9160    9.4923 H       1  UNL1        0.1233
     12 O          61.7910   87.1511   11.4920 O.3     1  UNL1       -0.4742
     13 C          62.3198   88.5446   11.3234 C.ar    1  UNL1        0.1388
     14 C          61.9495   89.3456   10.1105 C.ar    1  UNL1        0.0369
     15 C          62.4783   90.7391    9.9418 C.ar    1  UNL1        0.0031
     16 C          63.3775   91.3316   10.9860 C.ar    1  UNL1        0.0002
     17 C          63.7479   90.5305   12.1990 C.ar    1  UNL1        0.0029
     18 C          64.6471   91.1230   13.2432 C.ar    1  UNL1        0.0001
     19 C          65.0175   90.3219   14.4560 C.ar    1  UNL1        0.0000
     20 C          64.4886   88.9284   14.6247 C.ar    1  UNL1        0.0001
     21 C          63.5894   88.3359   13.5805 C.ar    1  UNL1        0.0030
     22 C          63.2191   89.1370   12.3676 C.ar    1  UNL1        0.0340
@<TRIPOS>BOND
     1     9    10    1
     2    10     8    1
     3     8     7    1
     4     1     7    1
     5     1    12    1
     6    12    13    1
     7    13    14   ar
     8    14    15   ar
     9    15    16   ar
    10    16    17   ar
    11    17    18   ar
    12    18    19   ar
    13    19    20   ar
    14    20    21   ar
    15    21    22   ar
    16     1     2    1
    17     2     3   ar
    18     3     4   ar
    19     4     5   ar
    20     5     6   ar
    21    22    13   ar
    22     6     2   ar
    23    22    17   ar
    24    10    11    1
@<TRIPOS>MOLECULE
*****
 22 24 0 0 0
SMALL
GASTEIGER

@<TRIPOS>ATOM
      1 C          62.2634   86.6029   11.2576 C.3     1  UNL1        0.1954
      2 C          61.9476   86.2138    9.8438 C.ar    1  UNL1        0.0468
      3 C          62.8634   85.4870    8.9040 C.ar    1  UNL1        0.0062
      4 C          62.1425   85.3072    7.6008 C.ar    1  UNL1        0.0073
      5 C          60.7812   85.9228    7.7354 C.ar    1  UNL1        0.0352
      6 S          60.6608   86.4831    9.1216 S.2     1  UNL1       -0.0873
      7 C          63.0876   85.6932   12.1196 C.3     1  UNL1        0.0658
      8 C          62.5624   84.3402   12.4990 C.3     1  UNL1        0.0727
      9 C          64.3532   82.9356   11.2459 C.3     1  UNL1        0.0859
     10 N          62.9328   83.1365   11.6842 N.3     1  UNL1       -0.2962
     11 H          62.6761   82.3175   12.2354 H       1  UNL1        0.1233
     12 O          61.7549   87.9017   11.8094 O.3     1  UNL1       -0.4742
     13 C          62.4732   89.1813   11.4983 C.ar    1  UNL1        0.1388
     14 C          62.2302   89.8796   10.1933 C.ar    1  UNL1        0.0369
     15 C          62.9484   91.1592    9.8822 C.ar    1  UNL1        0.0031
     16 C          63.9097   91.7404   10.8761 C.ar    1  UNL1        0.0002
     17 C          64.1528   91.0421   12.1813 C.ar    1  UNL1        0.0029
     18 C          65.1140   91.6234   13.1753 C.ar    1  UNL1        0.0001
     19 C          65.3570   90.9251   14.4803 C.ar    1  UNL1        0.0000
     20 C          64.6388   89.6455   14.7915 C.ar    1  UNL1        0.0001
     21 C          63.6775   89.0642   13.7975 C.ar    1  UNL1        0.0030
     22 C          63.4345   89.7625   12.4924 C.ar    1  UNL1        0.0340
@<TRIPOS>BOND
     1     9    10    1
     2    10     8    1
     3     8     7    1
     4     1     7    1
     5     1    12    1
     6    12    13    1
     7    13    14   ar
     8    14    15   ar
     9    15    16   ar
    10    16    17   ar
    11    17    18   ar
    12    18    19   ar
    13    19    20   ar
    14    20    21   ar
    15    21    22   ar
    16     1     2    1
    17     2     3   ar
    18     3     4   ar
    19     4     5   ar
    20     5     6   ar
    21    22    13   ar
    22     6     2   ar
    23    22    17   ar
    24    10    11    1
