@<TRIPOS>MOLECULE
*****
 65 73 0 0 0
SMALL
GASTEIGER

@<TRIPOS>ATOM
      1 N          62.0569   94.7793   -3.5263 N.3     1  UNL1       -0.1862
      2 C          60.9224   94.3974   -4.4302 C.3     1  UNL1        0.1775
      3 C          59.6285   93.9130   -3.8463 C.2     1  UNL1        0.2452
      4 O          58.4940   93.5311   -4.7503 O.2     1  UNL1       -0.2732
      5 N          59.4690   93.8104   -2.3583 N.am    1  UNL1       -0.2541
      6 C          60.6035   94.1922   -1.4544 C.3     1  UNL1        0.1908
      7 C          60.4440   94.0897    0.0336 C.3     1  UNL1        0.1359
      8 N          59.1501   93.6052    0.6176 N.am    1  UNL1       -0.2705
      9 C          58.0156   93.2233   -0.2864 C.2     1  UNL1        0.2445
     10 O          56.7217   92.7389    0.2976 O.2     1  UNL1       -0.2731
     11 C          58.1751   93.3259   -1.7743 C.3     1  UNL1        0.1577
     12 N          61.8974   94.6767   -2.0384 N.am    1  UNL1       -0.1863
     13 C          63.0319   95.0586   -1.1343 C.2     1  UNL1        0.3191
     14 O          62.8724   94.9560    0.3536 O.2     1  UNL1       -0.2512
     15 N          64.3258   95.5430   -1.7183 N.am    1  UNL1       -0.2836
     16 H          64.4305   95.6103   -2.6949 H       1  UNL1        0.1513
     17 C          63.3508   95.2637   -4.1103 C.3     1  UNL1        0.1188
     18 C          64.5678   93.0083   -4.5367 C.2     1  UNL1       -0.0034
     19 C          64.1490   94.3683   -5.0109 C.2     1  UNL1       -0.0071
     20 C          58.9906   93.5026    2.1056 C.3     1  UNL1        0.1217
     21 C          59.8860   92.5942    2.8950 C.ar    1  UNL1        0.0135
     22 C          61.3444   92.4998    2.5572 C.ar    1  UNL1       -0.0012
     23 C          62.2398   91.5915    3.3466 C.ar    1  UNL1       -0.0002
     24 C          61.6768   90.7776    4.4738 C.ar    1  UNL1        0.0016
     25 C          60.2184   90.8720    4.8115 C.ar    1  UNL1        0.0214
     26 C          59.3851   90.1962    5.8598 C.ar    1  UNL1        0.0722
     27 C          57.9747   90.6869    5.7183 C.ar    1  UNL1        0.0805
     28 N          57.9364   91.6659    4.5826 N.ar    1  UNL1       -0.3241
     29 C          56.7241   92.4014    4.0932 C.3     1  UNL1        0.1305
     30 C          59.3230   91.7803    4.0221 C.ar    1  UNL1        0.0577
     31 C          59.8761   89.2039    6.8720 C.2     1  UNL1        0.2510
     32 O          59.5512   87.7481    6.7139 O.2     1  UNL1       -0.2698
     33 N          60.6919   89.6675    8.0423 N.am    1  UNL1       -0.2791
     34 H          60.9051   90.6230    8.1460 H       1  UNL1        0.1552
     35 C          61.1829   88.6753    9.0544 C.ar    1  UNL1        0.0701
     36 C          61.2849   87.2231    8.6927 C.ar    1  UNL1        0.0191
     37 C          61.7759   86.2308    9.7048 C.ar    1  UNL1        0.0356
     38 C          62.1648   86.6908   11.0786 C.ar    1  UNL1        0.1327
     39 N          62.0628   88.1429   11.4402 N.ar    1  UNL1       -0.2278
     40 C          61.5718   89.1352   10.4281 C.ar    1  UNL1        0.1149
     41 N          62.6558   85.6986   12.0907 N.pl3   1  UNL1       -0.2792
     42 C          63.3390   86.1753   13.3382 C.3     1  UNL1        0.0948
     43 C          63.8300   85.1832   14.3504 C.3     1  UNL1        0.0375
     44 C          63.6378   83.7142   14.1152 C.3     1  UNL1        0.0608
     45 C          64.0130   82.5102   14.9273 C.3     1  UNL1        0.0175
     46 C          63.5618   81.2893   14.1818 C.3     1  UNL1        0.0188
     47 C          62.9077   81.7388   12.9089 C.3     1  UNL1        0.0736
     48 N          62.9547   83.2374   12.8678 N.3     1  UNL1       -0.2570
     49 C          62.4636   84.2296   11.8555 C.3     1  UNL1        0.1699
     50 C          57.0406   92.9441   -2.6783 C.3     1  UNL1        0.0556
     51 C          55.9075   93.9005   -2.9047 C.ar    1  UNL1       -0.0198
     52 C          54.8304   94.0454   -1.8709 C.ar    1  UNL1       -0.0011
     53 C          53.6973   95.0018   -2.0973 C.ar    1  UNL1        0.0363
     54 C          53.6411   95.8132   -3.3576 C.ar    1  UNL1        0.1337
     55 O          52.5080   96.7696   -3.5840 O.3     1  UNL1       -0.5055
     56 C          54.7182   95.6683   -4.3915 C.ar    1  UNL1        0.0363
     57 C          55.8514   94.7119   -4.1651 C.ar    1  UNL1       -0.0011
     58 H          51.8352   96.8602   -2.9382 H       1  UNL1        0.2922
     59 C          65.4603   95.9249   -0.8144 C.3     1  UNL1        0.1177
     60 C          65.3518   95.6941    0.6638 C.ar    1  UNL1       -0.0025
     61 C          65.4162   96.8554    1.6109 C.ar    1  UNL1       -0.0026
     62 C          65.3078   96.6247    3.0891 C.ar    1  UNL1       -0.0003
     63 C          65.1348   95.2325    3.6201 C.ar    1  UNL1       -0.0000
     64 C          65.0704   94.0711    2.6730 C.ar    1  UNL1       -0.0003
     65 C          65.1789   94.3019    1.1948 C.ar    1  UNL1       -0.0026
@<TRIPOS>BOND
     1    18    19    2
     2    19    17    1
     3    17     1    1
     4     1     2    1
     5     2     3    1
     6     3     4    2
     7     3     5   am
     8     5     6    1
     9     6     7    1
    10     7     8    1
    11     8    20    1
    12    20    21    1
    13    21    22   ar
    14    22    23   ar
    15    23    24   ar
    16    24    25   ar
    17    25    26   ar
    18    26    31    1
    19    31    32    2
    20    31    33   am
    21    33    35    1
    22    35    36   ar
    23    36    37   ar
    24    37    38   ar
    25    38    41    1
    26    41    42    1
    27    42    43    1
    28    43    44    1
    29    44    45    1
    30    45    46    1
    31    46    47    1
    32    47    48    1
    33    48    49    1
    34    38    39   ar
    35    39    40   ar
    36    26    27   ar
    37    27    28   ar
    38    28    29    1
    39    28    30   ar
    40     8     9   am
    41     9    10    2
    42     9    11    1
    43    11    50    1
    44    50    51    1
    45    51    52   ar
    46    52    53   ar
    47    53    54   ar
    48    54    55    1
    49    54    56   ar
    50    56    57   ar
    51     6    12    1
    52    12    13   am
    53    13    14    2
    54    13    15   am
    55    15    59    1
    56    59    60    1
    57    60    61   ar
    58    61    62   ar
    59    62    63   ar
    60    63    64   ar
    61    64    65   ar
    62    12     1    1
    63    65    60   ar
    64    11     5    1
    65    57    51   ar
    66    30    21   ar
    67    30    25   ar
    68    40    35   ar
    69    49    41    1
    70    48    44    1
    71    33    34    1
    72    55    58    1
    73    15    16    1
@<TRIPOS>MOLECULE
*****
 65 73 0 0 0
SMALL
GASTEIGER

@<TRIPOS>ATOM
      1 N          62.1602   95.3114   -3.5543 N.3     1  UNL1       -0.1862
      2 C          61.0087   95.2098   -4.5102 C.3     1  UNL1        0.1775
      3 C          59.6468   94.8339   -4.0064 C.2     1  UNL1        0.2452
      4 O          58.4953   94.7323   -4.9624 O.2     1  UNL1       -0.2732
      5 N          59.4363   94.5596   -2.5469 N.am    1  UNL1       -0.2541
      6 C          60.5878   94.6612   -1.5910 C.3     1  UNL1        0.1908
      7 C          60.3773   94.3869   -0.1313 C.3     1  UNL1        0.1359
      8 N          59.0154   94.0110    0.3724 N.am    1  UNL1       -0.2705
      9 C          57.8638   93.9094   -0.5836 C.2     1  UNL1        0.2445
     10 O          56.5019   93.5335   -0.0798 O.2     1  UNL1       -0.2731
     11 C          58.0743   94.1837   -2.0431 C.3     1  UNL1        0.1577
     12 N          61.9498   95.0371   -2.0947 N.am    1  UNL1       -0.1863
     13 C          63.1013   95.1387   -1.1388 C.2     1  UNL1        0.3191
     14 O          62.8908   94.8644    0.3208 O.2     1  UNL1       -0.2512
     15 N          64.4632   95.5146   -1.6425 N.am    1  UNL1       -0.2836
     16 H          64.6014   95.6946   -2.6005 H       1  UNL1        0.1513
     17 C          63.5222   95.6873   -4.0580 C.3     1  UNL1        0.1188
     18 C          64.2392   94.1158   -5.9987 C.2     1  UNL1       -0.0034
     19 C          63.8705   95.4825   -5.5026 C.2     1  UNL1       -0.0071
     20 C          58.8049   93.7367    1.8320 C.3     1  UNL1        0.1217
     21 C          59.7658   92.8575    2.5761 C.ar    1  UNL1        0.0135
     22 C          61.2008   92.7820    2.1457 C.ar    1  UNL1       -0.0012
     23 C          62.1617   91.9029    2.8898 C.ar    1  UNL1       -0.0002
     24 C          61.6877   91.0992    4.0642 C.ar    1  UNL1        0.0016
     25 C          60.2527   91.1747    4.4946 C.ar    1  UNL1        0.0214
     26 C          59.5015   90.5032    5.6058 C.ar    1  UNL1        0.0722
     27 C          58.0763   90.9673    5.5484 C.ar    1  UNL1        0.0805
     28 N          57.9467   91.9256    4.4018 N.ar    1  UNL1       -0.3241
     29 C          56.6922   92.6318    3.9805 C.3     1  UNL1        0.1305
     30 C          59.2918   92.0538    3.7505 C.ar    1  UNL1        0.0577
     31 C          60.0748   89.5371    6.5998 C.2     1  UNL1        0.2510
     32 O          60.4495   88.1504    6.1678 O.2     1  UNL1       -0.2698
     33 N          60.2735   89.9577    8.0258 N.am    1  UNL1       -0.2791
     34 H          60.0276   90.8679    8.3094 H       1  UNL1        0.1552
     35 C          60.8468   88.9917    9.0199 C.ar    1  UNL1        0.0701
     36 C          60.2666   87.6144    9.1477 C.ar    1  UNL1        0.0191
     37 C          60.8398   86.6484   10.1417 C.ar    1  UNL1        0.0356
     38 C          61.9933   87.0596   11.0079 C.ar    1  UNL1        0.1327
     39 N          62.5736   88.4369   10.8800 N.ar    1  UNL1       -0.2278
     40 C          62.0003   89.4030    9.8860 C.ar    1  UNL1        0.1149
     41 N          62.5667   86.0937   12.0019 N.pl3   1  UNL1       -0.2792
     42 C          63.3609   86.6012   13.1689 C.3     1  UNL1        0.0948
     43 C          63.9342   85.6353   14.1630 C.3     1  UNL1        0.0375
     44 C          63.7134   84.1618   13.9902 C.3     1  UNL1        0.0608
     45 C          64.1524   82.9791   14.8017 C.3     1  UNL1        0.0175
     46 C          63.6295   81.7406   14.1364 C.3     1  UNL1        0.0188
     47 C          62.8674   82.1577   12.9136 C.3     1  UNL1        0.0736
     48 N          62.9192   83.6541   12.8233 N.3     1  UNL1       -0.2570
     49 C          62.3458   84.6201   11.8291 C.3     1  UNL1        0.1699
     50 C          56.9228   94.0821   -2.9990 C.3     1  UNL1        0.0556
     51 C          56.3462   92.7396   -3.3385 C.ar    1  UNL1       -0.0198
     52 C          56.0189   91.7658   -2.2457 C.ar    1  UNL1       -0.0011
     53 C          55.4422   90.4233   -2.5852 C.ar    1  UNL1        0.0363
     54 C          55.1928   90.0547   -4.0176 C.ar    1  UNL1        0.1337
     55 O          54.6161   88.7123   -4.3572 O.3     1  UNL1       -0.5055
     56 C          55.5201   91.0286   -5.1106 C.ar    1  UNL1        0.0363
     57 C          56.0968   92.3710   -4.7711 C.ar    1  UNL1       -0.0011
     58 H          54.4116   88.1040   -3.6744 H       1  UNL1        0.2922
     59 C          65.6147   95.6162   -0.6867 C.3     1  UNL1        0.1177
     60 C          65.3675   95.5771    0.7923 C.ar    1  UNL1       -0.0025
     61 C          65.1514   94.2628    1.4821 C.ar    1  UNL1       -0.0026
     62 C          64.9041   94.2237    2.9611 C.ar    1  UNL1       -0.0003
     63 C          64.8730   95.4989    3.7502 C.ar    1  UNL1       -0.0000
     64 C          65.0891   96.8133    3.0605 C.ar    1  UNL1       -0.0003
     65 C          65.3363   96.8524    1.5815 C.ar    1  UNL1       -0.0026
@<TRIPOS>BOND
     1    18    19    2
     2    19    17    1
     3    17     1    1
     4     1     2    1
     5     2     3    1
     6     3     4    2
     7     3     5   am
     8     5     6    1
     9     6     7    1
    10     7     8    1
    11     8    20    1
    12    20    21    1
    13    21    22   ar
    14    22    23   ar
    15    23    24   ar
    16    24    25   ar
    17    25    26   ar
    18    26    31    1
    19    31    32    2
    20    31    33   am
    21    33    35    1
    22    35    36   ar
    23    36    37   ar
    24    37    38   ar
    25    38    41    1
    26    41    42    1
    27    42    43    1
    28    43    44    1
    29    44    45    1
    30    45    46    1
    31    46    47    1
    32    47    48    1
    33    48    49    1
    34    38    39   ar
    35    39    40   ar
    36    26    27   ar
    37    27    28   ar
    38    28    29    1
    39    28    30   ar
    40     8     9   am
    41     9    10    2
    42     9    11    1
    43    11    50    1
    44    50    51    1
    45    51    52   ar
    46    52    53   ar
    47    53    54   ar
    48    54    55    1
    49    54    56   ar
    50    56    57   ar
    51     6    12    1
    52    12    13   am
    53    13    14    2
    54    13    15   am
    55    15    59    1
    56    59    60    1
    57    60    61   ar
    58    61    62   ar
    59    62    63   ar
    60    63    64   ar
    61    64    65   ar
    62    12     1    1
    63    65    60   ar
    64    11     5    1
    65    57    51   ar
    66    30    21   ar
    67    30    25   ar
    68    40    35   ar
    69    49    41    1
    70    48    44    1
    71    33    34    1
    72    55    58    1
    73    15    16    1
