@<TRIPOS>MOLECULE
*****
 34 37 0 0 0
SMALL
GASTEIGER

@<TRIPOS>ATOM
      1 C          62.5181   88.0473   11.5565 C.ar    1  UNL1        0.1306
      2 C          63.2526   87.7171   12.8220 C.ar    1  UNL1        0.0112
      3 C          63.3853   86.2890   13.2612 C.ar    1  UNL1       -0.0048
      4 C          62.7836   85.1912   12.4350 C.ar    1  UNL1       -0.0102
      5 C          62.0492   85.5214   11.1695 C.ar    1  UNL1       -0.0048
      6 C          61.9164   86.9495   10.7303 C.ar    1  UNL1        0.0106
      7 C          62.9164   83.7631   12.8742 C.3     1  UNL1        0.1227
      8 C          63.4370   82.7300   11.9194 C.2     1  UNL1       -0.0115
      9 C          63.5698   81.3019   12.3586 C.2     1  UNL1        0.0141
     10 C          63.1819   80.9069   13.7527 C.2     1  UNL1        0.0883
     11 N          62.6613   81.9399   14.7075 N.am    1  UNL1       -0.1774
     12 C          62.5285   83.3680   14.2683 C.2     1  UNL1        0.2533
     13 O          62.0078   84.4011   15.2232 O.2     1  UNL1       -0.2723
     14 C          61.1819   87.2798    9.4648 C.3     1  UNL1        0.0218
     15 C          62.3592   86.8145    8.6601 C.3     1  UNL1        0.0045
     16 C          60.0046   87.7450   10.2694 C.3     1  UNL1        0.0045
     17 C          60.4475   87.6100    8.1993 C.3     1  UNL1        0.0045
     18 C          63.8543   88.8149   13.6483 C.3     1  UNL1        0.0297
     19 C          64.2290   89.3762   14.9879 C.3     1  UNL1        0.0095
     20 C          64.5219   90.1551   13.7399 C.3     1  UNL1        0.0268
     21 C          65.0764   91.3784   13.0722 C.ar    1  UNL1       -0.0221
     22 C          64.6630   91.7209   11.6715 C.ar    1  UNL1       -0.0030
     23 C          65.2175   92.9444   11.0039 C.ar    1  UNL1        0.0155
     24 C          66.1853   93.8253   11.7369 C.ar    1  UNL1        0.0644
     25 C          66.5987   93.4828   13.1375 C.ar    1  UNL1        0.0155
     26 C          66.0442   92.2594   13.8052 C.ar    1  UNL1       -0.0030
     27 N          66.7398   95.0487   11.0692 N.pl3   1  UNL1       -0.2187
     28 H          66.9018   95.8654   11.5944 H       1  UNL1        0.1734
     29 S          67.0474   95.0277    9.6012 S.O2    1  UNL1        0.0558
     30 C          67.3550   95.0067    8.1332 C.3     1  UNL1        0.1996
     31 O          68.1747   94.0702    9.8511 O.2     1  UNL1       -0.1544
     32 O          65.9201   95.9852    9.3513 O.2     1  UNL1       -0.1544
     33 C          61.3013   90.3389   11.6910 C.3     1  UNL1        0.2524
     34 O          62.3854   89.4754   11.1173 O.3     1  UNL1       -0.4721
@<TRIPOS>BOND
     1    33    34    1
     2    34     1    1
     3     1     2   ar
     4     2    18    1
     5    18    19    1
     6    19    20    1
     7    20    21    1
     8    21    22   ar
     9    22    23   ar
    10    23    24   ar
    11    24    27    1
    12    27    29    1
    13    29    30    1
    14    29    31    2
    15    29    32    2
    16    24    25   ar
    17    25    26   ar
    18     2     3   ar
    19     3     4   ar
    20     4     7    1
    21     7     8    1
    22     8     9    2
    23     9    10    1
    24    10    11    2
    25    11    12    1
    26    12    13    2
    27     4     5   ar
    28     5     6   ar
    29     6    14    1
    30    14    15    1
    31    14    16    1
    32    14    17    1
    33     6     1   ar
    34    20    18    1
    35    26    21   ar
    36    12     7    1
    37    27    28    1
@<TRIPOS>MOLECULE
*****
 34 37 0 0 0
SMALL
GASTEIGER

@<TRIPOS>ATOM
      1 C          63.7326   85.9311   13.6071 C.ar    1  UNL1        0.1306
      2 C          63.4044   87.3296   13.1754 C.ar    1  UNL1        0.0112
      3 C          62.5731   87.5601   11.9483 C.ar    1  UNL1       -0.0048
      4 C          62.0700   86.3921   11.1529 C.ar    1  UNL1       -0.0102
      5 C          62.3982   84.9936   11.5847 C.ar    1  UNL1       -0.0048
      6 C          63.2295   84.7631   12.8118 C.ar    1  UNL1        0.0106
      7 C          61.2387   86.6226    9.9258 C.3     1  UNL1        0.1227
      8 C          61.5284   85.8571    8.6689 C.2     1  UNL1       -0.0115
      9 C          60.6971   86.0876    7.4418 C.2     1  UNL1        0.0141
     10 C          59.5760   87.0837    7.4717 C.2     1  UNL1        0.0883
     11 N          59.2862   87.8492    8.7286 N.am    1  UNL1       -0.1774
     12 C          60.1176   87.6187    9.9557 C.2     1  UNL1        0.2533
     13 O          59.8277   88.3843   11.2127 O.2     1  UNL1       -0.2723
     14 C          63.5577   83.3645   13.2435 C.3     1  UNL1        0.0218
     15 C          64.7415   83.3580   12.3224 C.3     1  UNL1        0.0045
     16 C          62.3739   83.3710   14.1646 C.3     1  UNL1        0.0045
     17 C          63.8859   81.9660   13.6752 C.3     1  UNL1        0.0045
     18 C          63.9076   88.4977   13.9708 C.3     1  UNL1        0.0297
     19 C          64.1593   89.1558   15.2949 C.3     1  UNL1        0.0095
     20 C          64.5273   89.8626   14.0242 C.3     1  UNL1        0.0268
     21 C          65.0975   91.0588   13.3213 C.ar    1  UNL1       -0.0221
     22 C          64.4775   91.5448   12.0448 C.ar    1  UNL1       -0.0030
     23 C          65.0478   92.7410   11.3419 C.ar    1  UNL1        0.0155
     24 C          66.2380   93.4511   11.9155 C.ar    1  UNL1        0.0644
     25 C          66.8580   92.9650   13.1920 C.ar    1  UNL1        0.0155
     26 C          66.2878   91.7689   13.8949 C.ar    1  UNL1       -0.0030
     27 N          66.8082   94.6472   11.2127 N.pl3   1  UNL1       -0.2187
     28 H          66.9756   95.4786   11.7127 H       1  UNL1        0.1734
     29 S          67.1236   94.5767    9.7479 S.O2    1  UNL1        0.0558
     30 C          67.4389   94.5061    8.2831 C.3     1  UNL1        0.1996
     31 O          68.1782   93.5465   10.0245 O.2     1  UNL1       -0.1544
     32 O          66.0690   95.6069    9.4712 O.2     1  UNL1       -0.1544
     33 C          63.9064   85.6085   16.1792 C.3     1  UNL1        0.2524
     34 O          64.5640   85.7006   14.8342 O.3     1  UNL1       -0.4721
@<TRIPOS>BOND
     1    33    34    1
     2    34     1    1
     3     1     2   ar
     4     2    18    1
     5    18    19    1
     6    19    20    1
     7    20    21    1
     8    21    22   ar
     9    22    23   ar
    10    23    24   ar
    11    24    27    1
    12    27    29    1
    13    29    30    1
    14    29    31    2
    15    29    32    2
    16    24    25   ar
    17    25    26   ar
    18     2     3   ar
    19     3     4   ar
    20     4     7    1
    21     7     8    1
    22     8     9    2
    23     9    10    1
    24    10    11    2
    25    11    12    1
    26    12    13    2
    27     4     5   ar
    28     5     6   ar
    29     6    14    1
    30    14    15    1
    31    14    16    1
    32    14    17    1
    33     6     1   ar
    34    20    18    1
    35    26    21   ar
    36    12     7    1
    37    27    28    1
@<TRIPOS>MOLECULE
*****
 34 37 0 0 0
SMALL
GASTEIGER

@<TRIPOS>ATOM
      1 C          61.7333   87.0471    9.5410 C.ar    1  UNL1        0.1306
      2 C          61.9550   87.3545   10.9923 C.ar    1  UNL1        0.0112
      3 C          62.3085   86.2526   11.9468 C.ar    1  UNL1       -0.0048
      4 C          62.4405   84.8435   11.4499 C.ar    1  UNL1       -0.0102
      5 C          62.2188   84.5362    9.9986 C.ar    1  UNL1       -0.0048
      6 C          61.8653   85.6380    9.0441 C.ar    1  UNL1        0.0106
      7 C          62.7941   83.7417   12.4044 C.3     1  UNL1        0.1227
      8 C          62.6347   82.3094   11.9886 C.2     1  UNL1       -0.0115
      9 C          62.9883   81.2076   12.9431 C.2     1  UNL1        0.0141
     10 C          63.5012   81.5381   14.3133 C.2     1  UNL1        0.0883
     11 N          63.6606   82.9705   14.7291 N.am    1  UNL1       -0.1774
     12 C          63.3070   84.0723   13.7746 C.2     1  UNL1        0.2533
     13 O          63.4663   85.5047   14.1905 O.2     1  UNL1       -0.2723
     14 C          61.6436   85.3306    7.5928 C.3     1  UNL1        0.0218
     15 C          63.0926   84.9713    7.4476 C.3     1  UNL1        0.0045
     16 C          60.1946   85.6900    7.7379 C.3     1  UNL1        0.0045
     17 C          61.4220   85.0233    6.1414 C.3     1  UNL1        0.0045
     18 C          61.8230   88.7636   11.4893 C.3     1  UNL1        0.0297
     19 C          60.9633   89.9384   11.8508 C.3     1  UNL1        0.0095
     20 C          62.4542   90.0295   11.9884 C.3     1  UNL1        0.0268
     21 C          63.6793   90.8130   12.3560 C.ar    1  UNL1       -0.0221
     22 C          64.2435   91.8175   11.3955 C.ar    1  UNL1       -0.0030
     23 C          65.4687   92.6009   11.7632 C.ar    1  UNL1        0.0155
     24 C          66.1297   92.3798   13.0914 C.ar    1  UNL1        0.0644
     25 C          65.5656   91.3753   14.0519 C.ar    1  UNL1        0.0155
     26 C          64.3404   90.5919   13.6843 C.ar    1  UNL1       -0.0030
     27 N          67.3549   93.1632   13.4590 N.pl3   1  UNL1       -0.2187
     28 H          67.6531   93.9074   12.8876 H       1  UNL1        0.1734
     29 S          68.1257   92.8128   14.6972 S.O2    1  UNL1        0.0558
     30 C          68.8964   92.4624   15.9354 C.3     1  UNL1        0.1996
     31 O          67.1513   93.5968   15.5255 O.2     1  UNL1       -0.1544
     32 O          69.1000   92.0289   13.8688 O.2     1  UNL1       -0.1544
     33 C          60.0056   88.7498    8.6105 C.3     1  UNL1        0.2524
     34 O          61.3797   88.1489    8.5865 O.3     1  UNL1       -0.4721
@<TRIPOS>BOND
     1    33    34    1
     2    34     1    1
     3     1     2   ar
     4     2    18    1
     5    18    19    1
     6    19    20    1
     7    20    21    1
     8    21    22   ar
     9    22    23   ar
    10    23    24   ar
    11    24    27    1
    12    27    29    1
    13    29    30    1
    14    29    31    2
    15    29    32    2
    16    24    25   ar
    17    25    26   ar
    18     2     3   ar
    19     3     4   ar
    20     4     7    1
    21     7     8    1
    22     8     9    2
    23     9    10    1
    24    10    11    2
    25    11    12    1
    26    12    13    2
    27     4     5   ar
    28     5     6   ar
    29     6    14    1
    30    14    15    1
    31    14    16    1
    32    14    17    1
    33     6     1   ar
    34    20    18    1
    35    26    21   ar
    36    12     7    1
    37    27    28    1
@<TRIPOS>MOLECULE
*****
 34 37 0 0 0
SMALL
GASTEIGER

@<TRIPOS>ATOM
      1 C          61.3296   88.9215   10.1437 C.ar    1  UNL1        0.1306
      2 C          60.8217   87.7330    9.3826 C.ar    1  UNL1        0.0112
      3 C          61.3470   86.3629    9.6935 C.ar    1  UNL1       -0.0048
      4 C          62.3802   86.1812   10.7655 C.ar    1  UNL1       -0.0102
      5 C          62.8882   87.3697   11.5266 C.ar    1  UNL1       -0.0048
      6 C          62.3629   88.7399   11.2158 C.ar    1  UNL1        0.0106
      7 C          62.9056   84.8110   11.0764 C.3     1  UNL1        0.1227
      8 C          63.5533   83.9937    9.9983 C.2     1  UNL1       -0.0115
      9 C          64.0786   82.6235   10.3092 C.2     1  UNL1        0.0141
     10 C          63.9562   82.0706   11.6982 C.2     1  UNL1        0.0883
     11 N          63.3085   82.8880   12.7763 N.am    1  UNL1       -0.1774
     12 C          62.7832   84.2582   12.4654 C.2     1  UNL1        0.2533
     13 O          62.1354   85.0755   13.5436 O.2     1  UNL1       -0.2723
     14 C          62.8709   89.9284   11.9770 C.3     1  UNL1        0.0218
     15 C          62.2315   89.4010   13.2271 C.3     1  UNL1        0.0045
     16 C          63.5103   90.4559   10.7268 C.3     1  UNL1        0.0045
     17 C          63.3788   91.1169   12.7382 C.3     1  UNL1        0.0045
     18 C          59.7883   87.9147    8.3105 C.3     1  UNL1        0.0297
     19 C          58.5334   87.4608    7.6256 C.3     1  UNL1        0.0095
     20 C          59.2536   88.6831    7.1385 C.3     1  UNL1        0.0268
     21 C          59.3607   89.8324    6.1806 C.ar    1  UNL1       -0.0221
     22 C          60.6999   90.2328    5.6363 C.ar    1  UNL1       -0.0030
     23 C          60.8069   91.3822    4.6783 C.ar    1  UNL1        0.0155
     24 C          59.5748   92.1311    4.2648 C.ar    1  UNL1        0.0644
     25 C          58.2357   91.7307    4.8091 C.ar    1  UNL1        0.0155
     26 C          58.1286   90.5814    5.7670 C.ar    1  UNL1       -0.0030
     27 N          59.6819   93.2804    3.3069 N.pl3   1  UNL1       -0.2187
     28 H          59.3560   94.1716    3.5690 H       1  UNL1        0.1734
     29 S          60.2857   93.0719    1.9497 S.O2    1  UNL1        0.0558
     30 C          60.8895   92.8633    0.5926 C.3     1  UNL1        0.1996
     31 O          58.9169   92.8630    1.3729 O.2     1  UNL1       -0.1544
     32 O          61.6545   93.2808    2.5266 O.2     1  UNL1       -0.1544
     33 C          59.7264   90.8929   10.6853 C.3     1  UNL1        0.2524
     34 O          60.8043   90.2917    9.8328 O.3     1  UNL1       -0.4721
@<TRIPOS>BOND
     1    33    34    1
     2    34     1    1
     3     1     2   ar
     4     2    18    1
     5    18    19    1
     6    19    20    1
     7    20    21    1
     8    21    22   ar
     9    22    23   ar
    10    23    24   ar
    11    24    27    1
    12    27    29    1
    13    29    30    1
    14    29    31    2
    15    29    32    2
    16    24    25   ar
    17    25    26   ar
    18     2     3   ar
    19     3     4   ar
    20     4     7    1
    21     7     8    1
    22     8     9    2
    23     9    10    1
    24    10    11    2
    25    11    12    1
    26    12    13    2
    27     4     5   ar
    28     5     6   ar
    29     6    14    1
    30    14    15    1
    31    14    16    1
    32    14    17    1
    33     6     1   ar
    34    20    18    1
    35    26    21   ar
    36    12     7    1
    37    27    28    1
@<TRIPOS>MOLECULE
*****
 34 37 0 0 0
SMALL
GASTEIGER

@<TRIPOS>ATOM
      1 C          61.6081   87.1136    9.6443 C.ar    1  UNL1        0.1306
      2 C          61.9459   87.3813   11.0810 C.ar    1  UNL1        0.0112
      3 C          62.4195   86.2627   11.9610 C.ar    1  UNL1       -0.0048
      4 C          62.5553   84.8765   11.4044 C.ar    1  UNL1       -0.0102
      5 C          62.2174   84.6088    9.9677 C.ar    1  UNL1       -0.0048
      6 C          61.7438   85.7273    9.0877 C.ar    1  UNL1        0.0106
      7 C          63.0289   83.7579   12.2845 C.3     1  UNL1        0.1227
      8 C          62.3934   83.5380   13.6253 C.2     1  UNL1       -0.0115
      9 C          62.8670   82.4194   14.5053 C.2     1  UNL1        0.0141
     10 C          63.9761   81.5208   14.0446 C.2     1  UNL1        0.0883
     11 N          64.6116   81.7407   12.7038 N.am    1  UNL1       -0.1774
     12 C          64.1380   82.8592   11.8238 C.2     1  UNL1        0.2533
     13 O          64.7735   83.0791   10.4829 O.2     1  UNL1       -0.2723
     14 C          61.4059   85.4596    7.6509 C.3     1  UNL1        0.0218
     15 C          62.7989   84.9547    7.4174 C.3     1  UNL1        0.0045
     16 C          60.0129   85.9645    7.8843 C.3     1  UNL1        0.0045
     17 C          61.0681   85.1919    6.2142 C.3     1  UNL1        0.0045
     18 C          61.8102   88.7675   11.6377 C.3     1  UNL1        0.0297
     19 C          60.9914   89.8127   12.3356 C.3     1  UNL1        0.0095
     20 C          62.3940   90.1234   11.9040 C.3     1  UNL1        0.0268
     21 C          63.5407   91.0855   11.8086 C.ar    1  UNL1       -0.0221
     22 C          64.3904   91.3616   13.0135 C.ar    1  UNL1       -0.0030
     23 C          65.5372   92.3238   12.9180 C.ar    1  UNL1        0.0155
     24 C          65.8343   93.0098   11.6177 C.ar    1  UNL1        0.0644
     25 C          64.9847   92.7338   10.4127 C.ar    1  UNL1        0.0155
     26 C          63.8379   91.7717   10.5082 C.ar    1  UNL1       -0.0030
     27 N          66.9811   93.9720   11.5222 N.pl3   1  UNL1       -0.2187
     28 H          67.5383   94.1538   12.3133 H       1  UNL1        0.1734
     29 S          67.2791   94.6571   10.2216 S.O2    1  UNL1        0.0558
     30 C          67.5770   95.3423    8.9209 C.3     1  UNL1        0.1996
     31 O          66.3539   95.7759   10.5990 O.2     1  UNL1       -0.1544
     32 O          68.2042   93.5384    9.8441 O.2     1  UNL1       -0.1544
     33 C          61.4341   89.6549    9.1329 C.3     1  UNL1        0.2524
     34 O          61.1345   88.2321    8.7642 O.3     1  UNL1       -0.4721
@<TRIPOS>BOND
     1    33    34    1
     2    34     1    1
     3     1     2   ar
     4     2    18    1
     5    18    19    1
     6    19    20    1
     7    20    21    1
     8    21    22   ar
     9    22    23   ar
    10    23    24   ar
    11    24    27    1
    12    27    29    1
    13    29    30    1
    14    29    31    2
    15    29    32    2
    16    24    25   ar
    17    25    26   ar
    18     2     3   ar
    19     3     4   ar
    20     4     7    1
    21     7     8    1
    22     8     9    2
    23     9    10    1
    24    10    11    2
    25    11    12    1
    26    12    13    2
    27     4     5   ar
    28     5     6   ar
    29     6    14    1
    30    14    15    1
    31    14    16    1
    32    14    17    1
    33     6     1   ar
    34    20    18    1
    35    26    21   ar
    36    12     7    1
    37    27    28    1
