@<TRIPOS>MOLECULE
*****
 21 23 0 0 0
SMALL
GASTEIGER

@<TRIPOS>ATOM
      1 C          63.5504   85.4412   13.4048 C.ar    1  UNL1        0.0122
      2 C          64.2538   86.0973   14.5557 C.ar    1  UNL1        0.0009
      3 C          64.3926   87.5902   14.5973 C.ar    1  UNL1        0.0001
      4 C          63.8279   88.4272   13.4878 C.ar    1  UNL1        0.0010
      5 C          63.9667   89.9201   13.5294 C.ar    1  UNL1        0.0031
      6 C          63.4021   90.7570   12.4199 C.ar    1  UNL1        0.0366
      7 C          62.6987   90.1008   11.2690 C.ar    1  UNL1        0.1337
      8 O          62.1340   90.9377   10.1595 O.3     1  UNL1       -0.5055
      9 C          62.5599   88.6079   11.2274 C.ar    1  UNL1        0.0375
     10 C          63.1245   87.7710   12.3369 C.ar    1  UNL1        0.0136
     11 C          62.9857   86.2780   12.2954 C.ar    1  UNL1        0.0578
     12 CL         62.2823   85.6219   11.1444 Cl      1  UNL1       -0.0822
     13 H          62.2207   91.8704   10.1855 H       1  UNL1        0.2922
     14 O          60.9270   81.1294   14.6406 O.3     1  UNL1       -0.5039
     15 C          62.1000   81.7923   13.9812 C.ar    1  UNL1        0.1528
     16 C          63.1342   80.9622   13.2802 C.ar    1  UNL1        0.1353
     17 N          64.3071   81.6250   12.6208 N.ar    1  UNL1       -0.2391
     18 C          64.4458   83.1180   12.6623 C.ar    1  UNL1        0.0991
     19 C          63.4116   83.9481   13.3633 C.ar    1  UNL1        0.0230
     20 C          62.2387   83.2853   14.0227 C.ar    1  UNL1        0.0398
     21 H          60.8403   80.1968   14.6146 H       1  UNL1        0.2923
@<TRIPOS>BOND
     1    14    15    1
     2    15    16   ar
     3    16    17   ar
     4    17    18   ar
     5    18    19   ar
     6    19     1    1
     7     1     2   ar
     8     2     3   ar
     9     3     4   ar
    10     4     5   ar
    11     5     6   ar
    12     6     7   ar
    13     7     8    1
    14     7     9   ar
    15     9    10   ar
    16    10    11   ar
    17    11    12    1
    18    19    20   ar
    19    20    15   ar
    20    11     1   ar
    21    10     4   ar
    22    14    21    1
    23     8    13    1
@<TRIPOS>MOLECULE
*****
 21 23 0 0 0
SMALL
GASTEIGER

@<TRIPOS>ATOM
      1 C          65.0540   91.4620   12.8989 C.ar    1  UNL1        0.0122
      2 C          64.8533   92.2922   11.6659 C.ar    1  UNL1        0.0009
      3 C          63.8716   91.8555   10.6192 C.ar    1  UNL1        0.0001
      4 C          63.0906   90.5884   10.8055 C.ar    1  UNL1        0.0010
      5 C          62.1090   90.1516    9.7588 C.ar    1  UNL1        0.0031
      6 C          61.3280   88.8846    9.9452 C.ar    1  UNL1        0.0366
      7 C          61.5288   88.0544   11.1783 C.ar    1  UNL1        0.1337
      8 O          60.7478   86.7873   11.3646 O.3     1  UNL1       -0.5055
      9 C          62.5104   88.4911   12.2249 C.ar    1  UNL1        0.0375
     10 C          63.2913   89.7581   12.0386 C.ar    1  UNL1        0.0136
     11 C          64.2730   90.1950   13.0853 C.ar    1  UNL1        0.0578
     12 CL         64.4737   89.3647   14.3183 Cl      1  UNL1       -0.0822
     13 H          60.1345   86.5145   10.7108 H       1  UNL1        0.2922
     14 O          69.9481   92.4219   14.3573 O.3     1  UNL1       -0.5039
     15 C          68.4826   92.3787   14.6748 C.ar    1  UNL1        0.1528
     16 C          67.9989   92.7724   16.0390 C.ar    1  UNL1        0.1353
     17 N          66.5336   92.7293   16.3565 N.ar    1  UNL1       -0.2391
     18 C          65.5520   92.2925   15.3098 C.ar    1  UNL1        0.0991
     19 C          66.0357   91.8988   13.9456 C.ar    1  UNL1        0.0230
     20 C          67.5010   91.9419   13.6281 C.ar    1  UNL1        0.0398
     21 H          70.5613   92.6947   15.0111 H       1  UNL1        0.2923
@<TRIPOS>BOND
     1    14    15    1
     2    15    16   ar
     3    16    17   ar
     4    17    18   ar
     5    18    19   ar
     6    19     1    1
     7     1     2   ar
     8     2     3   ar
     9     3     4   ar
    10     4     5   ar
    11     5     6   ar
    12     6     7   ar
    13     7     8    1
    14     7     9   ar
    15     9    10   ar
    16    10    11   ar
    17    11    12    1
    18    19    20   ar
    19    20    15   ar
    20    11     1   ar
    21    10     4   ar
    22    14    21    1
    23     8    13    1
@<TRIPOS>MOLECULE
*****
 21 23 0 0 0
SMALL
GASTEIGER

@<TRIPOS>ATOM
      1 C          62.6488   85.5196   11.4498 C.ar    1  UNL1        0.0122
      2 C          61.9635   85.8472   10.1563 C.ar    1  UNL1        0.0009
      3 C          61.7679   87.2785    9.7526 C.ar    1  UNL1        0.0001
      4 C          62.2575   88.3824   10.6425 C.ar    1  UNL1        0.0010
      5 C          62.0619   89.8137   10.2388 C.ar    1  UNL1        0.0031
      6 C          62.5516   90.9175   11.1287 C.ar    1  UNL1        0.0366
      7 C          63.2368   90.5899   12.4221 C.ar    1  UNL1        0.1337
      8 O          63.7265   91.6938   13.3120 O.3     1  UNL1       -0.5055
      9 C          63.4325   89.1586   12.8258 C.ar    1  UNL1        0.0375
     10 C          62.9428   88.0548   11.9360 C.ar    1  UNL1        0.0136
     11 C          63.1384   86.6234   12.3396 C.ar    1  UNL1        0.0578
     12 CL         63.8237   86.2959   13.6331 Cl      1  UNL1       -0.0822
     13 H          63.6043   92.5879   13.0598 H       1  UNL1        0.2922
     14 O          62.1682   81.7320   14.9744 O.3     1  UNL1       -0.5039
     15 C          62.6041   82.1944   13.6157 C.ar    1  UNL1        0.1528
     16 C          63.2357   81.2255   12.6605 C.ar    1  UNL1        0.1353
     17 N          63.6716   81.6879   11.3018 N.ar    1  UNL1       -0.2391
     18 C          63.4760   83.1192   10.8983 C.ar    1  UNL1        0.0991
     19 C          62.8444   84.0882   11.8534 C.ar    1  UNL1        0.0230
     20 C          62.4085   83.6258   13.2121 C.ar    1  UNL1        0.0398
     21 H          62.2904   80.8378   15.2265 H       1  UNL1        0.2923
@<TRIPOS>BOND
     1    14    15    1
     2    15    16   ar
     3    16    17   ar
     4    17    18   ar
     5    18    19   ar
     6    19     1    1
     7     1     2   ar
     8     2     3   ar
     9     3     4   ar
    10     4     5   ar
    11     5     6   ar
    12     6     7   ar
    13     7     8    1
    14     7     9   ar
    15     9    10   ar
    16    10    11   ar
    17    11    12    1
    18    19    20   ar
    19    20    15   ar
    20    11     1   ar
    21    10     4   ar
    22    14    21    1
    23     8    13    1
@<TRIPOS>MOLECULE
*****
 21 23 0 0 0
SMALL
GASTEIGER

@<TRIPOS>ATOM
      1 C          63.2859   90.6150   11.4517 C.ar    1  UNL1        0.0122
      2 C          63.9118   91.5182   10.4306 C.ar    1  UNL1        0.0009
      3 C          64.9584   92.5088   10.8467 C.ar    1  UNL1        0.0001
      4 C          65.3792   92.5963   12.2838 C.ar    1  UNL1        0.0010
      5 C          66.4259   93.5870   12.6998 C.ar    1  UNL1        0.0031
      6 C          66.8466   93.6745   14.1369 C.ar    1  UNL1        0.0366
      7 C          66.2208   92.7713   15.1580 C.ar    1  UNL1        0.1337
      8 O          66.6416   92.8588   16.5951 O.3     1  UNL1       -0.5055
      9 C          65.1741   91.7807   14.7420 C.ar    1  UNL1        0.0375
     10 C          64.7533   91.6932   13.3049 C.ar    1  UNL1        0.0136
     11 C          63.7066   90.7025   12.8888 C.ar    1  UNL1        0.0578
     12 CL         63.0808   89.7994   13.9099 Cl      1  UNL1       -0.0822
     13 H          67.2954   93.4777   16.8550 H       1  UNL1        0.2922
     14 O          61.6437   85.7007   11.0599 O.3     1  UNL1       -0.5039
     15 C          61.4181   87.1673   10.8397 C.ar    1  UNL1        0.1528
     16 C          60.1458   87.6432   10.2035 C.ar    1  UNL1        0.1353
     17 N          59.9202   89.1096    9.9833 N.ar    1  UNL1       -0.2391
     18 C          60.9669   90.1002   10.3994 C.ar    1  UNL1        0.0991
     19 C          62.2392   89.6243   11.0356 C.ar    1  UNL1        0.0230
     20 C          62.4648   88.1579   11.2558 C.ar    1  UNL1        0.0398
     21 H          60.9898   85.0819   10.8000 H       1  UNL1        0.2923
@<TRIPOS>BOND
     1    14    15    1
     2    15    16   ar
     3    16    17   ar
     4    17    18   ar
     5    18    19   ar
     6    19     1    1
     7     1     2   ar
     8     2     3   ar
     9     3     4   ar
    10     4     5   ar
    11     5     6   ar
    12     6     7   ar
    13     7     8    1
    14     7     9   ar
    15     9    10   ar
    16    10    11   ar
    17    11    12    1
    18    19    20   ar
    19    20    15   ar
    20    11     1   ar
    21    10     4   ar
    22    14    21    1
    23     8    13    1
@<TRIPOS>MOLECULE
*****
 21 23 0 0 0
SMALL
GASTEIGER

@<TRIPOS>ATOM
      1 C          63.8692   90.0219   13.0376 C.ar    1  UNL1        0.0122
      2 C          63.2296   90.6237   11.8215 C.ar    1  UNL1        0.0009
      3 C          62.5344   89.7428   10.8262 C.ar    1  UNL1        0.0001
      4 C          62.4787   88.2602   11.0468 C.ar    1  UNL1        0.0010
      5 C          61.7835   87.3793   10.0515 C.ar    1  UNL1        0.0031
      6 C          61.7279   85.8967   10.2722 C.ar    1  UNL1        0.0366
      7 C          62.3674   85.2950   11.4883 C.ar    1  UNL1        0.1337
      8 O          62.3117   83.8123   11.7090 O.3     1  UNL1       -0.5055
      9 C          63.0626   86.1758   12.4836 C.ar    1  UNL1        0.0375
     10 C          63.1183   87.6584   12.2629 C.ar    1  UNL1        0.0136
     11 C          63.8135   88.5393   13.2583 C.ar    1  UNL1        0.0578
     12 CL         64.4531   87.9375   14.4744 Cl      1  UNL1       -0.0822
     13 H          61.8774   83.2621   11.0872 H       1  UNL1        0.2922
     14 O          67.8826   93.0598   14.3275 O.3     1  UNL1       -0.5039
     15 C          66.5711   92.4217   14.6779 C.ar    1  UNL1        0.1528
     16 C          65.9547   92.6645   16.0237 C.ar    1  UNL1        0.1353
     17 N          64.6432   92.0265   16.3741 N.ar    1  UNL1       -0.2391
     18 C          63.9481   91.1456   15.3788 C.ar    1  UNL1        0.0991
     19 C          64.5644   90.9028   14.0330 C.ar    1  UNL1        0.0230
     20 C          65.8759   91.5408   13.6826 C.ar    1  UNL1        0.0398
     21 H          68.3169   93.6100   14.9493 H       1  UNL1        0.2923
@<TRIPOS>BOND
     1    14    15    1
     2    15    16   ar
     3    16    17   ar
     4    17    18   ar
     5    18    19   ar
     6    19     1    1
     7     1     2   ar
     8     2     3   ar
     9     3     4   ar
    10     4     5   ar
    11     5     6   ar
    12     6     7   ar
    13     7     8    1
    14     7     9   ar
    15     9    10   ar
    16    10    11   ar
    17    11    12    1
    18    19    20   ar
    19    20    15   ar
    20    11     1   ar
    21    10     4   ar
    22    14    21    1
    23     8    13    1
@<TRIPOS>MOLECULE
*****
 21 23 0 0 0
SMALL
GASTEIGER

@<TRIPOS>ATOM
      1 C          62.2039   87.4379   11.0150 C.ar    1  UNL1        0.0122
      2 C          62.5785   86.4561   12.0855 C.ar    1  UNL1        0.0009
      3 C          63.3784   86.9082   13.2711 C.ar    1  UNL1        0.0001
      4 C          63.8038   88.3421   13.3863 C.ar    1  UNL1        0.0010
      5 C          64.6037   88.7941   14.5719 C.ar    1  UNL1        0.0031
      6 C          65.0290   90.2279   14.6870 C.ar    1  UNL1        0.0366
      7 C          64.6544   91.2096   13.6165 C.ar    1  UNL1        0.1337
      8 O          65.0798   92.6435   13.7317 O.3     1  UNL1       -0.5055
      9 C          63.8545   90.7576   12.4309 C.ar    1  UNL1        0.0375
     10 C          63.4292   89.3238   12.3158 C.ar    1  UNL1        0.0136
     11 C          62.6292   88.8716   11.1301 C.ar    1  UNL1        0.0578
     12 CL         62.2546   89.8534   10.0597 Cl      1  UNL1       -0.0822
     13 H          65.5795   92.9259   14.4723 H       1  UNL1        0.2922
     14 O          61.8667   84.7804    6.5625 O.3     1  UNL1       -0.5039
     15 C          61.2353   85.6570    7.6032 C.ar    1  UNL1        0.1528
     16 C          59.8040   86.0815    7.4582 C.ar    1  UNL1        0.1353
     17 N          59.1726   86.9581    8.4988 N.ar    1  UNL1       -0.2391
     18 C          59.9726   87.4102    9.6844 C.ar    1  UNL1        0.0991
     19 C          61.4039   86.9857    9.8294 C.ar    1  UNL1        0.0230
     20 C          62.0353   86.1091    8.7888 C.ar    1  UNL1        0.0398
     21 H          61.3670   84.4980    5.8219 H       1  UNL1        0.2923
@<TRIPOS>BOND
     1    14    15    1
     2    15    16   ar
     3    16    17   ar
     4    17    18   ar
     5    18    19   ar
     6    19     1    1
     7     1     2   ar
     8     2     3   ar
     9     3     4   ar
    10     4     5   ar
    11     5     6   ar
    12     6     7   ar
    13     7     8    1
    14     7     9   ar
    15     9    10   ar
    16    10    11   ar
    17    11    12    1
    18    19    20   ar
    19    20    15   ar
    20    11     1   ar
    21    10     4   ar
    22    14    21    1
    23     8    13    1
@<TRIPOS>MOLECULE
*****
 21 23 0 0 0
SMALL
GASTEIGER

@<TRIPOS>ATOM
      1 C          62.7456   85.6743   12.4015 C.ar    1  UNL1        0.0122
      2 C          62.0147   86.0056   11.1341 C.ar    1  UNL1        0.0009
      3 C          61.9610   87.4237   10.6482 C.ar    1  UNL1        0.0001
      4 C          62.6381   88.5105   11.4295 C.ar    1  UNL1        0.0010
      5 C          62.5844   89.9285   10.9435 C.ar    1  UNL1        0.0031
      6 C          63.2615   91.0152   11.7248 C.ar    1  UNL1        0.0366
      7 C          63.9923   90.6839   12.9922 C.ar    1  UNL1        0.1337
      8 O          64.6694   91.7707   13.7735 O.3     1  UNL1       -0.5055
      9 C          64.0460   89.2659   13.4781 C.ar    1  UNL1        0.0375
     10 C          63.3689   88.1792   12.6968 C.ar    1  UNL1        0.0136
     11 C          63.4227   86.7610   13.1828 C.ar    1  UNL1        0.0578
     12 CL         64.1535   86.4297   14.4501 Cl      1  UNL1       -0.0822
     13 H          64.6359   92.6566   13.4699 H       1  UNL1        0.2922
     14 O          62.9929   80.5811   11.4020 O.3     1  UNL1       -0.5039
     15 C          62.9230   81.7097   12.3877 C.ar    1  UNL1        0.1528
     16 C          62.9067   81.4201   13.8594 C.ar    1  UNL1        0.1353
     17 N          62.8367   82.5486   14.8451 N.ar    1  UNL1       -0.2391
     18 C          62.7830   83.9666   14.3591 C.ar    1  UNL1        0.0991
     19 C          62.7993   84.2562   12.8874 C.ar    1  UNL1        0.0230
     20 C          62.8693   83.1277   11.9017 C.ar    1  UNL1        0.0398
     21 H          63.0265   79.6953   11.7056 H       1  UNL1        0.2923
@<TRIPOS>BOND
     1    14    15    1
     2    15    16   ar
     3    16    17   ar
     4    17    18   ar
     5    18    19   ar
     6    19     1    1
     7     1     2   ar
     8     2     3   ar
     9     3     4   ar
    10     4     5   ar
    11     5     6   ar
    12     6     7   ar
    13     7     8    1
    14     7     9   ar
    15     9    10   ar
    16    10    11   ar
    17    11    12    1
    18    19    20   ar
    19    20    15   ar
    20    11     1   ar
    21    10     4   ar
    22    14    21    1
    23     8    13    1
@<TRIPOS>MOLECULE
*****
 21 23 0 0 0
SMALL
GASTEIGER

@<TRIPOS>ATOM
      1 C          64.2395   90.4697   13.0175 C.ar    1  UNL1        0.0122
      2 C          63.6478   91.1678   11.8290 C.ar    1  UNL1        0.0009
      3 C          62.8313   90.3958   10.8354 C.ar    1  UNL1        0.0001
      4 C          62.6064   88.9256   11.0303 C.ar    1  UNL1        0.0010
      5 C          61.7899   88.1536   10.0368 C.ar    1  UNL1        0.0031
      6 C          61.5650   86.6834   10.2317 C.ar    1  UNL1        0.0366
      7 C          62.1566   85.9853   11.4202 C.ar    1  UNL1        0.1337
      8 O          61.9317   84.5151   11.6151 O.3     1  UNL1       -0.5055
      9 C          62.9731   86.7573   12.4138 C.ar    1  UNL1        0.0375
     10 C          63.1980   88.2274   12.2189 C.ar    1  UNL1        0.0136
     11 C          64.0146   88.9995   13.2125 C.ar    1  UNL1        0.0578
     12 CL         64.6062   88.3014   14.4010 Cl      1  UNL1       -0.0822
     13 H          61.4216   84.0328   10.9945 H       1  UNL1        0.2922
     14 O          64.6859   92.7754   17.6527 O.3     1  UNL1       -0.5039
     15 C          65.2793   92.3946   16.3286 C.ar    1  UNL1        0.1528
     16 C          66.6891   92.7859   15.9982 C.ar    1  UNL1        0.1353
     17 N          67.2824   92.4051   14.6742 N.ar    1  UNL1       -0.2391
     18 C          66.4659   91.6330   13.6807 C.ar    1  UNL1        0.0991
     19 C          65.0560   91.2418   14.0112 C.ar    1  UNL1        0.0230
     20 C          64.4627   91.6226   15.3351 C.ar    1  UNL1        0.0398
     21 H          65.1960   93.2577   18.2733 H       1  UNL1        0.2923
@<TRIPOS>BOND
     1    14    15    1
     2    15    16   ar
     3    16    17   ar
     4    17    18   ar
     5    18    19   ar
     6    19     1    1
     7     1     2   ar
     8     2     3   ar
     9     3     4   ar
    10     4     5   ar
    11     5     6   ar
    12     6     7   ar
    13     7     8    1
    14     7     9   ar
    15     9    10   ar
    16    10    11   ar
    17    11    12    1
    18    19    20   ar
    19    20    15   ar
    20    11     1   ar
    21    10     4   ar
    22    14    21    1
    23     8    13    1
@<TRIPOS>MOLECULE
*****
 21 23 0 0 0
SMALL
GASTEIGER

@<TRIPOS>ATOM
      1 C          62.0209   87.7799   10.9815 C.ar    1  UNL1        0.0122
      2 C          62.5526   89.0469   11.5831 C.ar    1  UNL1        0.0009
      3 C          63.4148   88.9908   12.8092 C.ar    1  UNL1        0.0001
      4 C          63.7454   87.6676   13.4337 C.ar    1  UNL1        0.0010
      5 C          64.6076   87.6115   14.6598 C.ar    1  UNL1        0.0031
      6 C          64.9381   86.2883   15.2843 C.ar    1  UNL1        0.0366
      7 C          64.4063   85.0213   14.6827 C.ar    1  UNL1        0.1337
      8 O          64.7369   83.6981   15.3073 O.3     1  UNL1       -0.5055
      9 C          63.5441   85.0774   13.4566 C.ar    1  UNL1        0.0375
     10 C          63.2136   86.4006   12.8321 C.ar    1  UNL1        0.0136
     11 C          62.3513   86.4567   11.6060 C.ar    1  UNL1        0.0578
     12 CL         61.8196   85.1897   11.0044 Cl      1  UNL1       -0.0822
     13 H          65.2755   83.6631   16.0732 H       1  UNL1        0.2922
     14 O          59.5956   85.3658    7.0711 O.3     1  UNL1       -0.5039
     15 C          59.9460   86.6290    7.8002 C.ar    1  UNL1        0.1528
     16 C          59.4341   87.9485    7.3031 C.ar    1  UNL1        0.1353
     17 N          59.7845   89.2117    8.0321 N.ar    1  UNL1       -0.2391
     18 C          60.6467   89.1555    9.2582 C.ar    1  UNL1        0.0991
     19 C          61.1586   87.8360    9.7553 C.ar    1  UNL1        0.0230
     20 C          60.8082   86.5728    9.0263 C.ar    1  UNL1        0.0398
     21 H          59.0570   85.4009    6.3052 H       1  UNL1        0.2923
@<TRIPOS>BOND
     1    14    15    1
     2    15    16   ar
     3    16    17   ar
     4    17    18   ar
     5    18    19   ar
     6    19     1    1
     7     1     2   ar
     8     2     3   ar
     9     3     4   ar
    10     4     5   ar
    11     5     6   ar
    12     6     7   ar
    13     7     8    1
    14     7     9   ar
    15     9    10   ar
    16    10    11   ar
    17    11    12    1
    18    19    20   ar
    19    20    15   ar
    20    11     1   ar
    21    10     4   ar
    22    14    21    1
    23     8    13    1
