@<TRIPOS>MOLECULE
*****
 35 38 0 0 0
SMALL
GASTEIGER

@<TRIPOS>ATOM
      1 O          58.6497   88.6780    7.0507 O.2     1  UNL1       -0.2748
      2 C          60.0795   88.8968    7.4480 C.2     1  UNL1        0.2257
      3 N          60.9123   89.9124    6.7236 N.am    1  UNL1       -0.2839
      4 H          61.8507   90.0559    6.9844 H       1  UNL1        0.1549
      5 C          60.3153   90.7093    5.6017 C.ar    1  UNL1        0.0517
      6 C          58.8354   90.9497    5.5571 C.ar    1  UNL1        0.0179
      7 C          58.2385   91.7466    4.4352 C.ar    1  UNL1        0.0395
      8 C          59.1216   92.3032    3.3580 C.ar    1  UNL1        0.1525
      9 C          60.6015   92.0628    3.4025 C.ar    1  UNL1        0.0861
     10 C          61.1983   91.2659    4.5244 C.ar    1  UNL1        0.0324
     11 N          61.4845   92.6194    2.3253 N.am    1  UNL1       -0.2786
     12 C          60.8876   93.4163    1.2034 C.2     1  UNL1        0.2665
     13 O          61.7706   93.9728    0.1261 O.2     1  UNL1       -0.2709
     14 C          59.4076   93.6567    1.1588 C.3     1  UNL1        0.2438
     15 O          58.5246   93.1001    2.2361 O.3     1  UNL1       -0.4686
     16 H          62.4558   92.4616    2.3545 H       1  UNL1        0.1551
     17 C          58.8107   94.4536    0.0370 C.3     1  UNL1        0.0849
     18 C          57.6661   93.8937   -0.7546 C.3     1  UNL1        0.1414
     19 O          57.1419   92.5222   -0.4478 O.3     1  UNL1       -0.3819
     20 H          57.8215   91.8622   -0.6561 H       1  UNL1        0.2104
     21 C          60.6764   88.0998    8.5699 C.3     1  UNL1        0.0802
     22 C          61.3837   88.7988    9.6929 C.3     1  UNL1        0.0305
     23 C          61.9806   88.0018   10.8147 C.3     1  UNL1        0.0913
     24 N          61.8703   86.5059   10.8135 N.pl3   1  UNL1       -0.3074
     25 C          61.1630   85.8069    9.6905 C.3     1  UNL1        0.0913
     26 C          60.5661   86.6039    8.5687 C.3     1  UNL1        0.0305
     27 C          62.4672   85.7089   11.9354 C.ar    1  UNL1        0.0525
     28 C          62.2433   84.2274   12.0050 C.ar    1  UNL1        0.0466
     29 C          62.8402   83.4305   13.1268 C.ar    1  UNL1        0.1709
     30 F          62.6162   81.9489   13.1964 F       1  UNL1       -0.2017
     31 C          63.6611   84.1152   14.1791 C.ar    1  UNL1        0.1947
     32 F          64.2581   83.3182   15.3010 F       1  UNL1       -0.1994
     33 C          63.8851   85.5967   14.1096 C.ar    1  UNL1        0.1709
     34 F          64.7060   86.2813   15.1619 F       1  UNL1       -0.2017
     35 C          63.2882   86.3936   12.9877 C.ar    1  UNL1        0.0466
@<TRIPOS>BOND
     1     1     2    2
     2     2     3   am
     3     3     5    1
     4     5     6   ar
     5     6     7   ar
     6     7     8   ar
     7     8     9   ar
     8     9    10   ar
     9     9    11    1
    10    11    12   am
    11    12    13    2
    12    12    14    1
    13    14    17    1
    14    17    18    1
    15    18    19    1
    16    14    15    1
    17     2    21    1
    18    21    22    1
    19    22    23    1
    20    23    24    1
    21    24    27    1
    22    27    28   ar
    23    28    29   ar
    24    29    30    1
    25    29    31   ar
    26    31    32    1
    27    31    33   ar
    28    33    34    1
    29    33    35   ar
    30    24    25    1
    31    25    26    1
    32    10     5   ar
    33    26    21    1
    34    15     8    1
    35    35    27   ar
    36     3     4    1
    37    11    16    1
    38    19    20    1
@<TRIPOS>MOLECULE
*****
 35 38 0 0 0
SMALL
GASTEIGER

@<TRIPOS>ATOM
      1 O          58.6726   88.6864    7.0369 O.2     1  UNL1       -0.2748
      2 C          60.0991   88.9157    7.4401 C.2     1  UNL1        0.2257
      3 N          60.9274   89.9372    6.7189 N.am    1  UNL1       -0.2839
      4 H          61.8636   90.0877    6.9836 H       1  UNL1        0.1549
      5 C          60.3293   90.7295    5.5943 C.ar    1  UNL1        0.0517
      6 C          58.8494   90.9700    5.5505 C.ar    1  UNL1        0.0179
      7 C          58.2513   91.7623    4.4259 C.ar    1  UNL1        0.0395
      8 C          59.1332   92.3141    3.3453 C.ar    1  UNL1        0.1525
      9 C          60.6131   92.0736    3.3891 C.ar    1  UNL1        0.0861
     10 C          61.2112   91.2813    4.5136 C.ar    1  UNL1        0.0324
     11 N          61.4950   92.6253    2.3084 N.am    1  UNL1       -0.2786
     12 C          60.8970   93.4176    1.1839 C.2     1  UNL1        0.2665
     13 O          61.7788   93.9694    0.1032 O.2     1  UNL1       -0.2709
     14 C          59.4170   93.6581    1.1400 C.3     1  UNL1        0.2438
     15 O          58.5351   93.1064    2.2207 O.3     1  UNL1       -0.4686
     16 H          62.4663   92.4675    2.3372 H       1  UNL1        0.1551
     17 C          58.8189   94.4504    0.0155 C.3     1  UNL1        0.0849
     18 C          57.6955   93.8735   -0.7940 C.3     1  UNL1        0.1414
     19 O          57.1716   92.5034   -0.4803 O.3     1  UNL1       -0.3819
     20 H          57.8593   91.8444   -0.6641 H       1  UNL1        0.2104
     21 C          60.6972   88.1234    8.5647 C.3     1  UNL1        0.0802
     22 C          61.3769   88.8288    9.7006 C.3     1  UNL1        0.0305
     23 C          61.9749   88.0365   10.8251 C.3     1  UNL1        0.0913
     24 N          61.8933   86.5388   10.8137 N.pl3   1  UNL1       -0.3074
     25 C          61.2136   85.8333    9.6778 C.3     1  UNL1        0.0913
     26 C          60.6156   86.6256    8.5533 C.3     1  UNL1        0.0305
     27 C          62.4914   85.7465   11.9383 C.ar    1  UNL1        0.0525
     28 C          63.2896   86.4395   13.0024 C.ar    1  UNL1        0.0466
     29 C          63.8877   85.6472   14.1269 C.ar    1  UNL1        0.1709
     30 F          64.6859   86.3403   15.1912 F       1  UNL1       -0.2017
     31 C          63.6876   84.1619   14.1872 C.ar    1  UNL1        0.1947
     32 F          64.2857   83.3695   15.3118 F       1  UNL1       -0.1994
     33 C          62.8894   83.4688   13.1231 C.ar    1  UNL1        0.1709
     34 F          62.6893   81.9834   13.1834 F       1  UNL1       -0.2017
     35 C          62.2913   84.2611   11.9986 C.ar    1  UNL1        0.0466
@<TRIPOS>BOND
     1     1     2    2
     2     2     3   am
     3     3     5    1
     4     5     6   ar
     5     6     7   ar
     6     7     8   ar
     7     8     9   ar
     8     9    10   ar
     9     9    11    1
    10    11    12   am
    11    12    13    2
    12    12    14    1
    13    14    17    1
    14    17    18    1
    15    18    19    1
    16    14    15    1
    17     2    21    1
    18    21    22    1
    19    22    23    1
    20    23    24    1
    21    24    27    1
    22    27    28   ar
    23    28    29   ar
    24    29    30    1
    25    29    31   ar
    26    31    32    1
    27    31    33   ar
    28    33    34    1
    29    33    35   ar
    30    24    25    1
    31    25    26    1
    32    10     5   ar
    33    26    21    1
    34    15     8    1
    35    35    27   ar
    36     3     4    1
    37    11    16    1
    38    19    20    1
@<TRIPOS>MOLECULE
*****
 35 38 0 0 0
SMALL
GASTEIGER

@<TRIPOS>ATOM
      1 O          58.8654   88.3097    7.3225 O.2     1  UNL1       -0.2748
      2 C          59.9503   89.3199    7.0936 C.2     1  UNL1        0.2257
      3 N          61.1340   89.3707    8.0134 N.am    1  UNL1       -0.2839
      4 H          61.8461   90.0338    7.8631 H       1  UNL1        0.1549
      5 C          61.2330   88.4112    9.1622 C.ar    1  UNL1        0.0517
      6 C          60.5000   88.6931   10.4401 C.ar    1  UNL1        0.0179
      7 C          60.5990   87.7336   11.5888 C.ar    1  UNL1        0.0395
      8 C          61.4309   86.4922   11.4595 C.ar    1  UNL1        0.1525
      9 C          62.1639   86.2102   10.1816 C.ar    1  UNL1        0.0861
     10 C          62.0649   87.1697    9.0329 C.ar    1  UNL1        0.0324
     11 N          62.9958   84.9688   10.0523 N.am    1  UNL1       -0.2786
     12 C          63.0948   84.0093   11.2010 C.2     1  UNL1        0.2665
     13 O          63.9267   82.7678   11.0717 O.2     1  UNL1       -0.2709
     14 C          62.3618   84.2912   12.4790 C.3     1  UNL1        0.2438
     15 O          61.5298   85.5327   12.6083 O.3     1  UNL1       -0.4686
     16 H          63.4769   84.7838    9.2135 H       1  UNL1        0.1551
     17 C          62.4607   83.3317   13.6277 C.3     1  UNL1        0.0849
     18 C          62.6041   83.8503   15.0280 C.3     1  UNL1        0.1414
     19 O          61.6073   84.8313   15.5701 O.3     1  UNL1       -0.3819
     20 H          61.6755   85.6657   15.0802 H       1  UNL1        0.2104
     21 C          59.8513   90.2795    5.9449 C.3     1  UNL1        0.0802
     22 C          61.0820   90.6569    5.1748 C.3     1  UNL1        0.0305
     23 C          60.9830   91.6164    4.0261 C.3     1  UNL1        0.0913
     24 N          59.6534   92.1984    3.6475 N.pl3   1  UNL1       -0.3074
     25 C          58.4227   91.8210    4.4175 C.3     1  UNL1        0.0913
     26 C          58.5217   90.8615    5.5662 C.3     1  UNL1        0.0305
     27 C          59.5544   93.1579    2.4987 C.ar    1  UNL1        0.0525
     28 C          58.8533   92.7482    1.2375 C.ar    1  UNL1        0.0466
     29 C          58.7544   93.7077    0.0888 C.ar    1  UNL1        0.1709
     30 F          58.0533   93.2981   -1.1724 F       1  UNL1       -0.2017
     31 C          59.3566   95.0770    0.2013 C.ar    1  UNL1        0.1947
     32 F          59.2577   96.0365   -0.9475 F       1  UNL1       -0.1994
     33 C          60.0577   95.4867    1.4625 C.ar    1  UNL1        0.1709
     34 F          60.6599   96.8559    1.5749 F       1  UNL1       -0.2017
     35 C          60.1566   94.5272    2.6112 C.ar    1  UNL1        0.0466
@<TRIPOS>BOND
     1     1     2    2
     2     2     3   am
     3     3     5    1
     4     5     6   ar
     5     6     7   ar
     6     7     8   ar
     7     8     9   ar
     8     9    10   ar
     9     9    11    1
    10    11    12   am
    11    12    13    2
    12    12    14    1
    13    14    17    1
    14    17    18    1
    15    18    19    1
    16    14    15    1
    17     2    21    1
    18    21    22    1
    19    22    23    1
    20    23    24    1
    21    24    27    1
    22    27    28   ar
    23    28    29   ar
    24    29    30    1
    25    29    31   ar
    26    31    32    1
    27    31    33   ar
    28    33    34    1
    29    33    35   ar
    30    24    25    1
    31    25    26    1
    32    10     5   ar
    33    26    21    1
    34    15     8    1
    35    35    27   ar
    36     3     4    1
    37    11    16    1
    38    19    20    1
@<TRIPOS>MOLECULE
*****
 35 38 0 0 0
SMALL
GASTEIGER

@<TRIPOS>ATOM
      1 O          58.8599   88.2772    7.2966 O.2     1  UNL1       -0.2748
      2 C          59.9349   89.3024    7.0883 C.2     1  UNL1        0.2257
      3 N          61.1047   89.3636    8.0251 N.am    1  UNL1       -0.2839
      4 H          61.8102   90.0365    7.8884 H       1  UNL1        0.1549
      5 C          61.1996   88.3995    9.1704 C.ar    1  UNL1        0.0517
      6 C          60.4329   88.6576   10.4336 C.ar    1  UNL1        0.0179
      7 C          60.5278   87.6936   11.5788 C.ar    1  UNL1        0.0395
      8 C          61.3894   86.4714   11.4608 C.ar    1  UNL1        0.1525
      9 C          62.1561   86.2132   10.1977 C.ar    1  UNL1        0.0861
     10 C          62.0612   87.1773    9.0525 C.ar    1  UNL1        0.0324
     11 N          63.0176   84.9910   10.0798 N.am    1  UNL1       -0.2786
     12 C          63.1125   84.0270   11.2250 C.2     1  UNL1        0.2665
     13 O          63.9741   82.8048   11.1071 O.2     1  UNL1       -0.2709
     14 C          62.3459   84.2851   12.4882 C.3     1  UNL1        0.2438
     15 O          61.4843   85.5073   12.6061 O.3     1  UNL1       -0.4686
     16 H          63.5208   84.8216    9.2507 H       1  UNL1        0.1551
     17 C          62.4408   83.3210   13.6334 C.3     1  UNL1        0.0849
     18 C          62.8270   83.8121   14.9972 C.3     1  UNL1        0.1414
     19 O          61.9885   84.8469   15.6870 O.3     1  UNL1       -0.3819
     20 H          62.0352   85.6815   15.1948 H       1  UNL1        0.2104
     21 C          59.8400   90.2665    5.9430 C.3     1  UNL1        0.0802
     22 C          61.0726   90.6431    5.1755 C.3     1  UNL1        0.0305
     23 C          60.9776   91.6071    4.0303 C.3     1  UNL1        0.0913
     24 N          59.6502   92.1946    3.6525 N.pl3   1  UNL1       -0.3074
     25 C          58.4176   91.8180    4.4200 C.3     1  UNL1        0.0913
     26 C          58.5126   90.8540    5.5652 C.3     1  UNL1        0.0305
     27 C          59.5553   93.1587    2.5072 C.ar    1  UNL1        0.0525
     28 C          60.1622   94.5253    2.6251 C.ar    1  UNL1        0.0466
     29 C          60.0673   95.4893    1.4798 C.ar    1  UNL1        0.1709
     30 F          60.6743   96.8560    1.5976 F       1  UNL1       -0.2017
     31 C          59.3655   95.0866    0.2167 C.ar    1  UNL1        0.1947
     32 F          59.2706   96.0507   -0.9286 F       1  UNL1       -0.1994
     33 C          58.7585   93.7200    0.0989 C.ar    1  UNL1        0.1709
     34 F          58.0567   93.3174   -1.1641 F       1  UNL1       -0.2017
     35 C          58.8534   92.7560    1.2442 C.ar    1  UNL1        0.0466
@<TRIPOS>BOND
     1     1     2    2
     2     2     3   am
     3     3     5    1
     4     5     6   ar
     5     6     7   ar
     6     7     8   ar
     7     8     9   ar
     8     9    10   ar
     9     9    11    1
    10    11    12   am
    11    12    13    2
    12    12    14    1
    13    14    17    1
    14    17    18    1
    15    18    19    1
    16    14    15    1
    17     2    21    1
    18    21    22    1
    19    22    23    1
    20    23    24    1
    21    24    27    1
    22    27    28   ar
    23    28    29   ar
    24    29    30    1
    25    29    31   ar
    26    31    32    1
    27    31    33   ar
    28    33    34    1
    29    33    35   ar
    30    24    25    1
    31    25    26    1
    32    10     5   ar
    33    26    21    1
    34    15     8    1
    35    35    27   ar
    36     3     4    1
    37    11    16    1
    38    19    20    1
