@<TRIPOS>MOLECULE
*****
 27 29 0 0 0
SMALL
GASTEIGER

@<TRIPOS>ATOM
      1 C          63.9992   88.3325   13.3637 C.ar    1  UNL1        0.0442
      2 C          63.1679   87.5118   12.4229 C.ar    1  UNL1        0.0085
      3 C          62.7321   86.1315   12.8162 C.ar    1  UNL1        0.0074
      4 C          63.1276   85.5719   14.1505 C.ar    1  UNL1        0.0810
      5 C          63.9589   86.3925   15.0914 C.ar    1  UNL1        0.1451
      6 F          64.3544   85.8329   16.4258 F       1  UNL1       -0.2040
      7 C          64.3947   87.7729   14.6980 C.ar    1  UNL1        0.0380
      8 C          62.6917   84.1915   14.5439 C.2     1  UNL1        0.2513
      9 O          62.1531   83.9390   15.9208 O.2     1  UNL1       -0.2698
     10 N          62.7945   83.0637   13.5603 N.am    1  UNL1       -0.2735
     11 C          63.3332   83.3162   12.1833 C.3     1  UNL1        0.0939
     12 C          63.4360   82.1884   11.1997 C.3     1  UNL1        0.0241
     13 C          63.0002   80.8081   11.5931 C.3     1  UNL1        0.0328
     14 C          62.4616   80.5556   12.9700 C.3     1  UNL1        0.1303
     15 O          62.0257   79.1752   13.3634 O.3     1  UNL1       -0.3827
     16 C          62.3587   81.6834   13.9537 C.3     1  UNL1        0.1228
     17 H          61.7060   79.1858   14.2791 H       1  UNL1        0.2104
     18 C          64.8709   91.0932   12.5770 C.1     1  UNL1       -0.0597
     19 C          64.4351   89.7128   12.9704 C.1     1  UNL1       -0.0597
     20 C          66.1784   95.2341   11.3969 C.ar    1  UNL1        0.1388
     21 C          66.4268   94.7378   12.7904 C.ar    1  UNL1        0.0375
     22 C          65.9910   93.3575   13.1837 C.ar    1  UNL1        0.0114
     23 C          65.3067   92.4735   12.1836 C.ar    1  UNL1        0.0422
     24 C          65.0583   92.9698   10.7901 C.ar    1  UNL1        0.0114
     25 C          65.4941   94.3501   10.3967 C.ar    1  UNL1        0.0375
     26 C          67.2404   96.8491    9.6608 C.3     1  UNL1        0.2525
     27 O          66.6142   96.6145   11.0035 O.3     1  UNL1       -0.4714
@<TRIPOS>BOND
     1    26    27    1
     2    27    20    1
     3    20    21   ar
     4    21    22   ar
     5    22    23   ar
     6    23    18    1
     7    18    19    3
     8    19     1    1
     9     1     2   ar
    10     2     3   ar
    11     3     4   ar
    12     4     8    1
    13     8     9    2
    14     8    10   am
    15    10    11    1
    16    11    12    1
    17    12    13    1
    18    13    14    1
    19    14    15    1
    20    14    16    1
    21     4     5   ar
    22     5     6    1
    23     5     7   ar
    24    23    24   ar
    25    24    25   ar
    26    25    20   ar
    27     7     1   ar
    28    16    10    1
    29    15    17    1
@<TRIPOS>MOLECULE
*****
 27 29 0 0 0
SMALL
GASTEIGER

@<TRIPOS>ATOM
      1 C          64.0041   88.3273   13.4317 C.ar    1  UNL1        0.0442
      2 C          64.4769   87.7368   14.7270 C.ar    1  UNL1        0.0085
      3 C          64.0408   86.3582   15.1262 C.ar    1  UNL1        0.0074
      4 C          63.1319   85.5702   14.2302 C.ar    1  UNL1        0.0810
      5 C          62.6592   86.1607   12.9349 C.ar    1  UNL1        0.1451
      6 F          61.7503   85.3727   12.0388 F       1  UNL1       -0.2040
      7 C          63.0953   87.5393   12.5357 C.ar    1  UNL1        0.0380
      8 C          62.6958   84.1916   14.6294 C.2     1  UNL1        0.2513
      9 O          62.1377   83.9491   16.0003 O.2     1  UNL1       -0.2698
     10 N          62.8179   83.0555   13.6576 N.am    1  UNL1       -0.2735
     11 C          63.3761   83.2980   12.2866 C.3     1  UNL1        0.0939
     12 C          63.4982   82.1619   11.3148 C.3     1  UNL1        0.0241
     13 C          63.0621   80.7833   11.7140 C.3     1  UNL1        0.0328
     14 C          62.5039   80.5408   13.0850 C.3     1  UNL1        0.1303
     15 O          62.0678   79.1623   13.4842 O.3     1  UNL1       -0.3827
     16 C          62.3818   81.6770   14.0568 C.3     1  UNL1        0.1228
     17 H          61.7344   79.1797   14.3949 H       1  UNL1        0.2104
     18 C          64.8763   91.0845   12.6333 C.1     1  UNL1       -0.0597
     19 C          64.4402   89.7059   13.0325 C.1     1  UNL1       -0.0597
     20 C          66.1846   95.2202   11.4356 C.ar    1  UNL1        0.1388
     21 C          65.4554   94.3507   10.4547 C.ar    1  UNL1        0.0375
     22 C          65.0193   92.9721   10.8539 C.ar    1  UNL1        0.0114
     23 C          65.3124   92.4630   12.2341 C.ar    1  UNL1        0.0422
     24 C          66.0415   93.3325   13.2150 C.ar    1  UNL1        0.0114
     25 C          66.4776   94.7111   12.8158 C.ar    1  UNL1        0.0375
     26 C          67.1277   96.8522    9.6477 C.3     1  UNL1        0.2525
     27 O          66.6207   96.5987   11.0364 O.3     1  UNL1       -0.4714
@<TRIPOS>BOND
     1    26    27    1
     2    27    20    1
     3    20    21   ar
     4    21    22   ar
     5    22    23   ar
     6    23    18    1
     7    18    19    3
     8    19     1    1
     9     1     2   ar
    10     2     3   ar
    11     3     4   ar
    12     4     8    1
    13     8     9    2
    14     8    10   am
    15    10    11    1
    16    11    12    1
    17    12    13    1
    18    13    14    1
    19    14    15    1
    20    14    16    1
    21     4     5   ar
    22     5     6    1
    23     5     7   ar
    24    23    24   ar
    25    24    25   ar
    26    25    20   ar
    27     7     1   ar
    28    16    10    1
    29    15    17    1
@<TRIPOS>MOLECULE
*****
 27 29 0 0 0
SMALL
GASTEIGER

@<TRIPOS>ATOM
      1 C          63.8329   86.2384   13.5802 C.ar    1  UNL1        0.0442
      2 C          62.9337   85.7280   12.4936 C.ar    1  UNL1        0.0085
      3 C          62.5330   84.2827   12.4687 C.ar    1  UNL1        0.0074
      4 C          63.0315   83.3479   13.5306 C.ar    1  UNL1        0.0810
      5 C          63.9306   83.8583   14.6173 C.ar    1  UNL1        0.1451
      6 F          64.4292   82.9234   15.6792 F       1  UNL1       -0.2040
      7 C          64.3313   85.3036   14.6421 C.ar    1  UNL1        0.0380
      8 C          62.6307   81.9026   13.5058 C.2     1  UNL1        0.2513
      9 O          62.0631   81.2604   14.7367 O.2     1  UNL1       -0.2698
     10 N          62.7977   81.0995   12.2500 N.am    1  UNL1       -0.2735
     11 C          63.3654   81.7416   11.0189 C.3     1  UNL1        0.0939
     12 C          63.5324   80.9385    9.7631 C.3     1  UNL1        0.0241
     13 C          63.1317   79.4932    9.7383 C.3     1  UNL1        0.0328
     14 C          62.5640   78.8511   10.9693 C.3     1  UNL1        0.1303
     15 O          62.1633   77.4058   10.9444 O.3     1  UNL1       -0.3827
     16 C          62.3970   79.6542   12.2251 C.3     1  UNL1        0.1228
     17 H          61.8183   77.1509   11.8145 H       1  UNL1        0.2104
     18 C          64.6343   89.1290   13.6299 C.1     1  UNL1       -0.0597
     19 C          64.2336   87.6837   13.6051 C.1     1  UNL1       -0.0597
     20 C          65.8364   93.4648   13.7044 C.ar    1  UNL1        0.1388
     21 C          65.9458   92.6347   14.9489 C.ar    1  UNL1        0.0375
     22 C          65.5450   91.1894   14.9241 C.ar    1  UNL1        0.0114
     23 C          65.0350   90.5742   13.6547 C.ar    1  UNL1        0.0422
     24 C          64.9256   91.4043   12.4102 C.ar    1  UNL1        0.0114
     25 C          65.3263   92.8496   12.4350 C.ar    1  UNL1        0.0375
     26 C          66.4014   95.6650   12.4435 C.3     1  UNL1        0.2525
     27 O          66.2371   94.9101   13.7292 O.3     1  UNL1       -0.4714
@<TRIPOS>BOND
     1    26    27    1
     2    27    20    1
     3    20    21   ar
     4    21    22   ar
     5    22    23   ar
     6    23    18    1
     7    18    19    3
     8    19     1    1
     9     1     2   ar
    10     2     3   ar
    11     3     4   ar
    12     4     8    1
    13     8     9    2
    14     8    10   am
    15    10    11    1
    16    11    12    1
    17    12    13    1
    18    13    14    1
    19    14    15    1
    20    14    16    1
    21     4     5   ar
    22     5     6    1
    23     5     7   ar
    24    23    24   ar
    25    24    25   ar
    26    25    20   ar
    27     7     1   ar
    28    16    10    1
    29    15    17    1
@<TRIPOS>MOLECULE
*****
 27 29 0 0 0
SMALL
GASTEIGER

@<TRIPOS>ATOM
      1 C          63.6235   89.2848   12.0891 C.ar    1  UNL1        0.0442
      2 C          63.7973   88.7743   13.4888 C.ar    1  UNL1        0.0085
      3 C          64.3336   89.6810   14.5566 C.ar    1  UNL1        0.0074
      4 C          64.6961   91.0981   14.2248 C.ar    1  UNL1        0.0810
      5 C          64.5224   91.6086   12.8251 C.ar    1  UNL1        0.1451
      6 F          64.8850   93.0259   12.4933 F       1  UNL1       -0.2040
      7 C          63.9861   90.7020   11.7573 C.ar    1  UNL1        0.0380
      8 C          65.2325   92.0048   15.2927 C.2     1  UNL1        0.2513
      9 O          64.3383   92.4627   16.4065 O.2     1  UNL1       -0.2698
     10 N          66.6630   92.4536   15.2467 N.am    1  UNL1       -0.2735
     11 C          67.5572   91.9958   14.1328 C.3     1  UNL1        0.0939
     12 C          68.9877   92.4446   14.0868 C.3     1  UNL1        0.0241
     13 C          69.5241   93.3513   15.1546 C.3     1  UNL1        0.0328
     14 C          68.6299   93.8091   16.2685 C.3     1  UNL1        0.1303
     15 O          69.1662   94.7158   17.3364 O.3     1  UNL1       -0.3827
     16 C          67.1993   93.3603   16.3145 C.3     1  UNL1        0.1228
     17 H          68.4635   94.9144   17.9748 H       1  UNL1        0.2104
     18 C          62.5509   87.4715    9.9534 C.1     1  UNL1       -0.0597
     19 C          63.0872   88.3781   11.0212 C.1     1  UNL1       -0.0597
     20 C          60.9420   84.7515    6.7498 C.ar    1  UNL1        0.1388
     21 C          60.0422   85.7621    7.3971 C.ar    1  UNL1        0.0375
     22 C          60.5786   86.6688    8.4650 C.ar    1  UNL1        0.0114
     23 C          62.0146   86.5648    8.8855 C.ar    1  UNL1        0.0422
     24 C          62.9143   85.5542    8.2382 C.ar    1  UNL1        0.0114
     25 C          62.3780   84.6475    7.1704 C.ar    1  UNL1        0.0375
     26 C          61.1731   83.6506    4.4079 C.3     1  UNL1        0.2525
     27 O          60.4057   83.8448    5.6819 O.3     1  UNL1       -0.4714
@<TRIPOS>BOND
     1    26    27    1
     2    27    20    1
     3    20    21   ar
     4    21    22   ar
     5    22    23   ar
     6    23    18    1
     7    18    19    3
     8    19     1    1
     9     1     2   ar
    10     2     3   ar
    11     3     4   ar
    12     4     8    1
    13     8     9    2
    14     8    10   am
    15    10    11    1
    16    11    12    1
    17    12    13    1
    18    13    14    1
    19    14    15    1
    20    14    16    1
    21     4     5   ar
    22     5     6    1
    23     5     7   ar
    24    23    24   ar
    25    24    25   ar
    26    25    20   ar
    27     7     1   ar
    28    16    10    1
    29    15    17    1
