@<TRIPOS>MOLECULE
*****
 23 24 0 0 0
SMALL
GASTEIGER

@<TRIPOS>ATOM
      1 C          66.3641   92.8219   11.4784 C.ar    1  UNL1        0.1753
      2 C          65.1858   92.4056   10.6488 C.ar    1  UNL1        0.0403
      3 C          64.0940   91.5774   11.2588 C.ar    1  UNL1        0.0063
      4 C          64.1806   91.1654   12.6985 C.ar    1  UNL1        0.0403
      5 C          65.3589   91.5817   13.5281 C.ar    1  UNL1        0.1754
      6 C          66.4506   92.4099   12.9181 C.ar    1  UNL1        0.2061
      7 C          62.9157   91.1611   10.4291 C.2     1  UNL1        0.0035
      8 C          62.0163   90.0585   10.9037 C.2     1  UNL1        0.0420
      9 C          60.8380   89.6422   10.0741 C.2     1  UNL1        0.1957
     10 O          59.6347   90.5329    9.9801 O.2     1  UNL1       -0.2866
     11 C          60.8630   88.3352    9.3384 C.ar    1  UNL1        0.0420
     12 C          59.7329   87.9682    8.4230 C.ar    1  UNL1        0.0239
     13 C          59.7578   86.6612    7.6873 C.ar    1  UNL1        0.0990
     14 N          60.9129   85.7213    7.8670 N.ar    1  UNL1       -0.2423
     15 C          62.0431   86.0883    8.7825 C.ar    1  UNL1        0.0990
     16 C          62.0181   87.3953    9.5182 C.ar    1  UNL1        0.0239
     17 O          65.4455   91.1698   14.9679 O.3     1  UNL1       -0.4683
     18 C          64.2131   91.1680   15.8229 C.3     1  UNL1        0.2526
     19 O          67.6290   92.8262   13.7478 O.3     1  UNL1       -0.4654
     20 C          67.4200   93.6279   14.9982 C.3     1  UNL1        0.2528
     21 O          67.4558   93.6501   10.8683 O.3     1  UNL1       -0.4723
     22 C          68.6635   92.3709    8.9565 C.3     1  UNL1        0.0512
     23 C          67.7874   93.4995    9.4132 C.3     1  UNL1        0.2057
@<TRIPOS>BOND
     1    22    23    1
     2    23    21    1
     3    21     1    1
     4     1     2   ar
     5     2     3   ar
     6     3     7    1
     7     7     8    2
     8     8     9    1
     9     9    10    2
    10     9    11    1
    11    11    12   ar
    12    12    13   ar
    13    13    14   ar
    14    14    15   ar
    15    15    16   ar
    16     3     4   ar
    17     4     5   ar
    18     5    17    1
    19    17    18    1
    20     5     6   ar
    21     6    19    1
    22    19    20    1
    23     6     1   ar
    24    16    11   ar
@<TRIPOS>MOLECULE
*****
 23 24 0 0 0
SMALL
GASTEIGER

@<TRIPOS>ATOM
      1 C          65.3223   91.5942   13.5805 C.ar    1  UNL1        0.1753
      2 C          64.1403   91.1884   12.7510 C.ar    1  UNL1        0.0403
      3 C          64.0777   91.5641   11.3001 C.ar    1  UNL1        0.0063
      4 C          65.1971   92.3455   10.6788 C.ar    1  UNL1        0.0403
      5 C          66.3792   92.7513   11.5083 C.ar    1  UNL1        0.1754
      6 C          66.4418   92.3756   12.9591 C.ar    1  UNL1        0.2061
      7 C          62.8956   91.1582   10.4707 C.2     1  UNL1        0.0035
      8 C          62.0785   89.9632   10.8634 C.2     1  UNL1        0.0420
      9 C          60.8965   89.5573   10.0340 C.2     1  UNL1        0.1957
     10 O          59.6999   90.4573    9.9426 O.2     1  UNL1       -0.2866
     11 C          60.9109   88.2515    9.2960 C.ar    1  UNL1        0.0420
     12 C          59.7643   87.8825    8.4021 C.ar    1  UNL1        0.0239
     13 C          59.7787   86.5767    7.6641 C.ar    1  UNL1        0.0990
     14 N          60.9398   85.6400    7.8199 N.ar    1  UNL1       -0.2423
     15 C          62.0865   86.0090    8.7138 C.ar    1  UNL1        0.0990
     16 C          62.0721   87.3148    9.4518 C.ar    1  UNL1        0.0239
     17 O          67.4987   93.5328   10.8869 O.3     1  UNL1       -0.4683
     18 C          67.4414   93.8987    9.4334 C.3     1  UNL1        0.2526
     19 O          67.6239   92.7814   13.7886 O.3     1  UNL1       -0.4654
     20 C          67.4226   93.5885   15.0368 C.3     1  UNL1        0.2528
     21 O          65.3849   91.2185   15.0313 O.3     1  UNL1       -0.4723
     22 C          63.3989   89.9143   16.0823 C.3     1  UNL1        0.0512
     23 C          64.1326   91.2030   15.8567 C.3     1  UNL1        0.2057
@<TRIPOS>BOND
     1    22    23    1
     2    23    21    1
     3    21     1    1
     4     1     2   ar
     5     2     3   ar
     6     3     7    1
     7     7     8    2
     8     8     9    1
     9     9    10    2
    10     9    11    1
    11    11    12   ar
    12    12    13   ar
    13    13    14   ar
    14    14    15   ar
    15    15    16   ar
    16     3     4   ar
    17     4     5   ar
    18     5    17    1
    19    17    18    1
    20     5     6   ar
    21     6    19    1
    22    19    20    1
    23     6     1   ar
    24    16    11   ar
@<TRIPOS>MOLECULE
*****
 23 24 0 0 0
SMALL
GASTEIGER

@<TRIPOS>ATOM
      1 C          63.6310   84.9727   13.6846 C.ar    1  UNL1        0.1753
      2 C          64.1214   86.1232   14.5127 C.ar    1  UNL1        0.0403
      3 C          63.9728   87.5278   14.0076 C.ar    1  UNL1        0.0063
      4 C          63.3339   87.7819   12.6745 C.ar    1  UNL1        0.0403
      5 C          62.8436   86.6313   11.8465 C.ar    1  UNL1        0.1754
      6 C          62.9921   85.2267   12.3515 C.ar    1  UNL1        0.2061
      7 C          64.4632   88.6784   14.8358 C.2     1  UNL1        0.0035
      8 C          63.9699   90.0672   14.5569 C.2     1  UNL1        0.0420
      9 C          64.4602   91.2177   15.3849 C.2     1  UNL1        0.1957
     10 O          63.5943   91.7822   16.4720 O.2     1  UNL1       -0.2866
     11 C          65.8164   91.8039   15.1261 C.ar    1  UNL1        0.0420
     12 C          66.4420   92.7212   16.1346 C.ar    1  UNL1        0.0239
     13 C          67.7983   93.3073   15.8757 C.ar    1  UNL1        0.0990
     14 N          68.5290   92.9761   14.6083 N.ar    1  UNL1       -0.2423
     15 C          67.9034   92.0588   13.5997 C.ar    1  UNL1        0.0990
     16 C          66.5471   91.4727   13.8585 C.ar    1  UNL1        0.0239
     17 O          62.2046   86.8853   10.5133 O.3     1  UNL1       -0.4683
     18 C          62.1111   88.2845    9.9808 C.3     1  UNL1        0.2526
     19 O          62.5017   84.0761   11.5233 O.3     1  UNL1       -0.4654
     20 C          63.4759   83.2466   10.7405 C.3     1  UNL1        0.2528
     21 O          63.7796   83.5681   14.1896 O.3     1  UNL1       -0.4723
     22 C          62.0046   81.6710   14.1729 C.3     1  UNL1        0.0512
     23 C          62.6141   82.8740   14.8296 C.3     1  UNL1        0.2057
@<TRIPOS>BOND
     1    22    23    1
     2    23    21    1
     3    21     1    1
     4     1     2   ar
     5     2     3   ar
     6     3     7    1
     7     7     8    2
     8     8     9    1
     9     9    10    2
    10     9    11    1
    11    11    12   ar
    12    12    13   ar
    13    13    14   ar
    14    14    15   ar
    15    15    16   ar
    16     3     4   ar
    17     4     5   ar
    18     5    17    1
    19    17    18    1
    20     5     6   ar
    21     6    19    1
    22    19    20    1
    23     6     1   ar
    24    16    11   ar
@<TRIPOS>MOLECULE
*****
 23 24 0 0 0
SMALL
GASTEIGER

@<TRIPOS>ATOM
      1 C          65.7561   91.7314   13.7751 C.ar    1  UNL1        0.1753
      2 C          65.3984   90.5258   14.5927 C.ar    1  UNL1        0.0403
      3 C          64.3194   89.5951   14.1242 C.ar    1  UNL1        0.0063
      4 C          63.5982   89.8698   12.8380 C.ar    1  UNL1        0.0403
      5 C          63.9559   91.0754   12.0204 C.ar    1  UNL1        0.1754
      6 C          65.0349   92.0062   12.4889 C.ar    1  UNL1        0.2061
      7 C          63.9617   88.3894   14.9419 C.2     1  UNL1        0.0035
      8 C          64.2901   87.0159   14.4363 C.2     1  UNL1        0.0420
      9 C          63.9324   85.8103   15.2539 C.2     1  UNL1        0.1957
     10 O          63.8323   85.9192   16.7466 O.2     1  UNL1       -0.2866
     11 C          63.6748   84.4958   14.5789 C.ar    1  UNL1        0.0420
     12 C          64.4975   84.0878   13.3929 C.ar    1  UNL1        0.0239
     13 C          64.2399   82.7732   12.7179 C.ar    1  UNL1        0.0990
     14 N          63.1596   81.8667   13.2288 N.ar    1  UNL1       -0.2423
     15 C          62.3368   82.2748   14.4148 C.ar    1  UNL1        0.0990
     16 C          62.5944   83.5893   15.0899 C.ar    1  UNL1        0.0239
     17 O          63.2347   91.3503   10.7342 O.3     1  UNL1       -0.4683
     18 C          62.1255   90.4445   10.2879 C.3     1  UNL1        0.2526
     19 O          65.3926   93.2118   11.6712 O.3     1  UNL1       -0.4654
     20 C          66.3829   93.0914   10.5511 C.3     1  UNL1        0.2528
     21 O          66.8350   92.6622   14.2437 O.3     1  UNL1       -0.4723
     22 C          68.6282   92.5434   16.1199 C.3     1  UNL1        0.0512
     23 C          67.1993   92.7167   15.6977 C.3     1  UNL1        0.2057
@<TRIPOS>BOND
     1    22    23    1
     2    23    21    1
     3    21     1    1
     4     1     2   ar
     5     2     3   ar
     6     3     7    1
     7     7     8    2
     8     8     9    1
     9     9    10    2
    10     9    11    1
    11    11    12   ar
    12    12    13   ar
    13    13    14   ar
    14    14    15   ar
    15    15    16   ar
    16     3     4   ar
    17     4     5   ar
    18     5    17    1
    19    17    18    1
    20     5     6   ar
    21     6    19    1
    22    19    20    1
    23     6     1   ar
    24    16    11   ar
@<TRIPOS>MOLECULE
*****
 23 24 0 0 0
SMALL
GASTEIGER

@<TRIPOS>ATOM
      1 C          61.4871   87.0326   10.4740 C.ar    1  UNL1        0.1753
      2 C          62.4395   87.9348   11.2011 C.ar    1  UNL1        0.0403
      3 C          62.4093   89.4138   10.9527 C.ar    1  UNL1        0.0063
      4 C          61.4267   89.9905    9.9771 C.ar    1  UNL1        0.0403
      5 C          60.4743   89.0882    9.2499 C.ar    1  UNL1        0.1754
      6 C          60.5045   87.6093    9.4984 C.ar    1  UNL1        0.2061
      7 C          63.3618   90.3161   11.6799 C.2     1  UNL1        0.0035
      8 C          64.0738   91.4087   10.9387 C.2     1  UNL1        0.0420
      9 C          65.0262   92.3109   11.6659 C.2     1  UNL1        0.1957
     10 O          64.9237   92.4665   13.1543 O.2     1  UNL1       -0.2866
     11 C          66.0811   93.0577   10.9046 C.ar    1  UNL1        0.0420
     12 C          67.2267   92.3139   10.2846 C.ar    1  UNL1        0.0239
     13 C          68.2816   93.0607    9.5234 C.ar    1  UNL1        0.0990
     14 N          68.1910   94.5512    9.3822 N.ar    1  UNL1       -0.2423
     15 C          67.0454   95.2951   10.0022 C.ar    1  UNL1        0.0990
     16 C          65.9905   94.5483   10.7634 C.ar    1  UNL1        0.0239
     17 O          59.4916   89.6649    8.2743 O.3     1  UNL1       -0.4683
     18 C          59.6842   89.4530    6.8019 C.3     1  UNL1        0.2526
     19 O          59.5521   86.7070    8.7711 O.3     1  UNL1       -0.4654
     20 C          60.0262   85.9097    7.5924 C.3     1  UNL1        0.2528
     21 O          61.5174   85.5536   10.7224 O.3     1  UNL1       -0.4723
     22 C          63.2921   83.7557   11.3287 C.3     1  UNL1        0.0512
     23 C          62.5018   84.9766   11.6959 C.3     1  UNL1        0.2057
@<TRIPOS>BOND
     1    22    23    1
     2    23    21    1
     3    21     1    1
     4     1     2   ar
     5     2     3   ar
     6     3     7    1
     7     7     8    2
     8     8     9    1
     9     9    10    2
    10     9    11    1
    11    11    12   ar
    12    12    13   ar
    13    13    14   ar
    14    14    15   ar
    15    15    16   ar
    16     3     4   ar
    17     4     5   ar
    18     5    17    1
    19    17    18    1
    20     5     6   ar
    21     6    19    1
    22    19    20    1
    23     6     1   ar
    24    16    11   ar
@<TRIPOS>MOLECULE
*****
 23 24 0 0 0
SMALL
GASTEIGER

@<TRIPOS>ATOM
      1 C          63.9452   91.0839   12.1392 C.ar    1  UNL1        0.1753
      2 C          63.5897   89.8735   12.9507 C.ar    1  UNL1        0.0403
      3 C          64.3534   89.5592   14.2029 C.ar    1  UNL1        0.0063
      4 C          65.4726   90.4554   14.6436 C.ar    1  UNL1        0.0403
      5 C          65.8281   91.6658   13.8322 C.ar    1  UNL1        0.1754
      6 C          65.0644   91.9800   12.5800 C.ar    1  UNL1        0.2061
      7 C          63.9979   88.3488   15.0144 C.2     1  UNL1        0.0035
      8 C          64.2903   86.9770   14.4826 C.2     1  UNL1        0.0420
      9 C          63.9348   85.7666   15.2940 C.2     1  UNL1        0.1957
     10 O          63.8373   85.8669   16.7875 O.2     1  UNL1       -0.2866
     11 C          63.6768   84.4557   14.6119 C.ar    1  UNL1        0.0420
     12 C          62.5562   83.5749   15.0792 C.ar    1  UNL1        0.0239
     13 C          62.2982   82.2641   14.3972 C.ar    1  UNL1        0.0990
     14 N          63.1608   81.8341   13.2479 N.ar    1  UNL1       -0.2423
     15 C          64.2815   82.7149   12.7805 C.ar    1  UNL1        0.0990
     16 C          64.5395   84.0257   13.4626 C.ar    1  UNL1        0.0239
     17 O          66.9473   92.5620   14.2729 O.3     1  UNL1       -0.4683
     18 C          67.0527   92.9790   15.7099 C.3     1  UNL1        0.2526
     19 O          65.4199   93.1905   11.7685 O.3     1  UNL1       -0.4654
     20 C          66.3273   93.0577   10.5815 C.3     1  UNL1        0.2528
     21 O          63.1815   91.3981   10.8870 O.3     1  UNL1       -0.4723
     22 C          60.8960   90.2502   10.4303 C.3     1  UNL1        0.0512
     23 C          62.3777   90.3277   10.2102 C.3     1  UNL1        0.2057
@<TRIPOS>BOND
     1    22    23    1
     2    23    21    1
     3    21     1    1
     4     1     2   ar
     5     2     3   ar
     6     3     7    1
     7     7     8    2
     8     8     9    1
     9     9    10    2
    10     9    11    1
    11    11    12   ar
    12    12    13   ar
    13    13    14   ar
    14    14    15   ar
    15    15    16   ar
    16     3     4   ar
    17     4     5   ar
    18     5    17    1
    19    17    18    1
    20     5     6   ar
    21     6    19    1
    22    19    20    1
    23     6     1   ar
    24    16    11   ar
@<TRIPOS>MOLECULE
*****
 23 24 0 0 0
SMALL
GASTEIGER

@<TRIPOS>ATOM
      1 C          62.8440   86.6697   11.8103 C.ar    1  UNL1        0.1753
      2 C          63.3257   87.8154   12.6501 C.ar    1  UNL1        0.0403
      3 C          63.9932   87.5513   13.9672 C.ar    1  UNL1        0.0063
      4 C          64.1790   86.1415   14.4445 C.ar    1  UNL1        0.0403
      5 C          63.6974   84.9958   13.6047 C.ar    1  UNL1        0.1754
      6 C          63.0299   85.2599   12.2876 C.ar    1  UNL1        0.2061
      7 C          64.4748   88.6971   14.8070 C.2     1  UNL1        0.0035
      8 C          63.9712   90.0849   14.5419 C.2     1  UNL1        0.0420
      9 C          64.4528   91.2307   15.3817 C.2     1  UNL1        0.1957
     10 O          63.5694   91.7992   16.4525 O.2     1  UNL1       -0.2866
     11 C          65.8178   91.8081   15.1507 C.ar    1  UNL1        0.0420
     12 C          66.5421   91.5307   13.8668 C.ar    1  UNL1        0.0239
     13 C          67.9071   92.1081   13.6358 C.ar    1  UNL1        0.0990
     14 N          68.5478   92.9629   14.6887 N.ar    1  UNL1       -0.2423
     15 C          67.8236   93.2403   15.9727 C.ar    1  UNL1        0.0990
     16 C          66.4586   92.6630   16.2037 C.ar    1  UNL1        0.0239
     17 O          63.8832   83.5859   14.0820 O.3     1  UNL1       -0.4683
     18 C          62.7679   82.8833   14.7979 C.3     1  UNL1        0.2526
     19 O          62.5482   84.1141   11.4478 O.3     1  UNL1       -0.4654
     20 C          63.4935   83.4206   10.5121 C.3     1  UNL1        0.2528
     21 O          62.1765   86.9338   10.4933 O.3     1  UNL1       -0.4723
     22 C          60.5999   88.4414    9.0822 C.3     1  UNL1        0.0512
     23 C          61.5661   88.2759   10.2176 C.3     1  UNL1        0.2057
@<TRIPOS>BOND
     1    22    23    1
     2    23    21    1
     3    21     1    1
     4     1     2   ar
     5     2     3   ar
     6     3     7    1
     7     7     8    2
     8     8     9    1
     9     9    10    2
    10     9    11    1
    11    11    12   ar
    12    12    13   ar
    13    13    14   ar
    14    14    15   ar
    15    15    16   ar
    16     3     4   ar
    17     4     5   ar
    18     5    17    1
    19    17    18    1
    20     5     6   ar
    21     6    19    1
    22    19    20    1
    23     6     1   ar
    24    16    11   ar
@<TRIPOS>MOLECULE
*****
 23 24 0 0 0
SMALL
GASTEIGER

@<TRIPOS>ATOM
      1 C          60.1703   88.3185    8.9193 C.ar    1  UNL1        0.1753
      2 C          60.6944   89.3124    9.9129 C.ar    1  UNL1        0.0403
      3 C          61.6994   88.8860   10.9415 C.ar    1  UNL1        0.0063
      4 C          62.1803   87.4656   10.9766 C.ar    1  UNL1        0.0403
      5 C          61.6562   86.4717    9.9830 C.ar    1  UNL1        0.1754
      6 C          60.6511   86.8981    8.9543 C.ar    1  UNL1        0.2061
      7 C          62.2236   89.8800   11.9352 C.2     1  UNL1        0.0035
      8 C          63.3102   89.4840   12.8904 C.2     1  UNL1        0.0420
      9 C          63.8343   90.4779   13.8840 C.2     1  UNL1        0.1957
     10 O          63.1400   90.6591   15.2013 O.2     1  UNL1       -0.2866
     11 C          65.0528   91.2907   13.5604 C.ar    1  UNL1        0.0420
     12 C          65.0754   92.1519   12.3326 C.ar    1  UNL1        0.0239
     13 C          66.2939   92.9648   12.0089 C.ar    1  UNL1        0.0990
     14 N          67.4896   92.9163   12.9132 N.ar    1  UNL1       -0.2423
     15 C          67.4670   92.0551   14.1412 C.ar    1  UNL1        0.0990
     16 C          66.2486   91.2423   14.4648 C.ar    1  UNL1        0.0239
     17 O          62.1370   85.0512   10.0180 O.3     1  UNL1       -0.4683
     18 C          62.5464   84.4299   11.3204 C.3     1  UNL1        0.2526
     19 O          60.1270   85.9041    7.9607 O.3     1  UNL1       -0.4654
     20 C          61.0549   85.2862    6.9571 C.3     1  UNL1        0.2528
     21 O          59.1653   88.7449    7.8906 O.3     1  UNL1       -0.4723
     22 C          58.8719   90.2729    5.8100 C.3     1  UNL1        0.0512
     23 C          59.6242   89.1974    6.5362 C.3     1  UNL1        0.2057
@<TRIPOS>BOND
     1    22    23    1
     2    23    21    1
     3    21     1    1
     4     1     2   ar
     5     2     3   ar
     6     3     7    1
     7     7     8    2
     8     8     9    1
     9     9    10    2
    10     9    11    1
    11    11    12   ar
    12    12    13   ar
    13    13    14   ar
    14    14    15   ar
    15    15    16   ar
    16     3     4   ar
    17     4     5   ar
    18     5    17    1
    19    17    18    1
    20     5     6   ar
    21     6    19    1
    22    19    20    1
    23     6     1   ar
    24    16    11   ar
@<TRIPOS>MOLECULE
*****
 23 24 0 0 0
SMALL
GASTEIGER

@<TRIPOS>ATOM
      1 C          62.2182   88.8529   11.1340 C.ar    1  UNL1        0.1753
      2 C          62.9290   90.1213   11.5024 C.ar    1  UNL1        0.0403
      3 C          63.8708   90.1415   12.6697 C.ar    1  UNL1        0.0063
      4 C          64.1019   88.8932   13.4686 C.ar    1  UNL1        0.0403
      5 C          63.3911   87.6247   13.1002 C.ar    1  UNL1        0.1754
      6 C          62.4493   87.6046   11.9329 C.ar    1  UNL1        0.2061
      7 C          64.5816   91.4100   13.0381 C.2     1  UNL1        0.0035
      8 C          65.1877   92.2682   11.9674 C.2     1  UNL1        0.0420
      9 C          65.8984   93.5367   12.3358 C.2     1  UNL1        0.1957
     10 O          66.1146   93.8834   13.7791 O.2     1  UNL1       -0.2866
     11 C          66.3930   94.4585   11.2608 C.ar    1  UNL1        0.0420
     12 C          67.1401   93.9054   10.0836 C.ar    1  UNL1        0.0239
     13 C          67.6347   94.8273    9.0086 C.ar    1  UNL1        0.0990
     14 N          67.3822   96.3023    9.1109 N.ar    1  UNL1       -0.2423
     15 C          66.6351   96.8555   10.2882 C.ar    1  UNL1        0.0990
     16 C          66.1405   95.9337   11.3631 C.ar    1  UNL1        0.0239
     17 O          63.6221   86.3763   13.8991 O.3     1  UNL1       -0.4683
     18 C          64.6544   86.3625   14.9873 C.3     1  UNL1        0.2526
     19 O          61.7385   86.3360   11.5645 O.3     1  UNL1       -0.4654
     20 C          62.2342   85.5040   10.4191 C.3     1  UNL1        0.2528
     21 O          61.2764   88.8327    9.9667 O.3     1  UNL1       -0.4723
     22 C          59.6018   90.4176   11.1641 C.3     1  UNL1        0.0512
     23 C          60.1402   89.8099    9.9028 C.3     1  UNL1        0.2057
@<TRIPOS>BOND
     1    22    23    1
     2    23    21    1
     3    21     1    1
     4     1     2   ar
     5     2     3   ar
     6     3     7    1
     7     7     8    2
     8     8     9    1
     9     9    10    2
    10     9    11    1
    11    11    12   ar
    12    12    13   ar
    13    13    14   ar
    14    14    15   ar
    15    15    16   ar
    16     3     4   ar
    17     4     5   ar
    18     5    17    1
    19    17    18    1
    20     5     6   ar
    21     6    19    1
    22    19    20    1
    23     6     1   ar
    24    16    11   ar
