@<TRIPOS>MOLECULE
*****
 40 45 0 0 0
SMALL
GASTEIGER

@<TRIPOS>ATOM
      1 C          64.0376   89.7196   15.7406 C.ar    1  UNL1        0.1667
      2 N          63.1538   89.0206   16.7308 N.ar    1  UNL1       -0.2239
      3 C          63.1573   87.5569   16.4029 C.ar    1  UNL1        0.0893
      4 C          62.4683   86.3848   17.0363 C.ar    1  UNL1        0.0202
      5 C          62.6651   85.0070   16.4769 C.ar    1  UNL1        0.0081
      6 C          63.5510   84.8014   15.2841 C.ar    1  UNL1        0.0329
      7 C          64.2401   85.9735   14.6506 C.ar    1  UNL1        0.0146
      8 C          64.0432   87.3513   15.2100 C.ar    1  UNL1        0.0502
      9 S          64.5872   88.6879   14.8007 S.2     1  UNL1       -0.0513
     10 O          66.0813   90.7979   13.8273 O.2     1  UNL1       -0.2524
     11 C          65.3436   91.7310   14.7412 C.2     1  UNL1        0.3059
     12 N          65.6277   93.2032   14.6984 N.am    1  UNL1       -0.2872
     13 N          64.3217   91.1919   15.6978 N.am    1  UNL1       -0.2485
     14 H          65.1436   93.8156   15.2982 H       1  UNL1        0.1510
     15 H          63.8376   91.8043   16.2976 H       1  UNL1        0.1583
     16 C          66.6496   93.7423   13.7417 C.3     1  UNL1        0.1082
     17 C          66.2190   94.2829   12.4104 C.3     1  UNL1        0.0938
     18 N          66.9140   93.8353   11.1588 N.3     1  UNL1       -0.2670
     19 C          67.0876   94.7901   10.0150 C.3     1  UNL1        0.1047
     20 C          67.7827   94.3426    8.7634 C.3     1  UNL1        0.1595
     21 O          68.3042   92.9403    8.6555 O.3     1  UNL1       -0.3508
     22 C          68.1306   91.9855    9.7993 C.3     1  UNL1        0.1595
     23 C          67.4355   92.4330   11.0510 C.3     1  UNL1        0.1047
     24 S          63.7478   83.4235   14.7247 S.3     1  UNL1       -0.0470
     25 C          63.8409   83.2226   13.2412 C.ar    1  UNL1        0.2171
     26 N          64.4117   82.0209   12.5482 N.ar    1  UNL1       -0.1200
     27 N          64.3030   82.2437   11.0689 N.ar    1  UNL1       -0.1264
     28 C          63.6649   83.5831   10.8475 C.ar    1  UNL1        0.1872
     29 C          63.3071   84.3300    9.5969 C.ar    1  UNL1        0.0423
     30 C          62.6637   85.6818    9.6887 C.ar    1  UNL1        0.0241
     31 C          62.3780   86.2869   11.0313 C.ar    1  UNL1        0.1016
     32 N          62.7359   85.5399   12.2819 N.ar    1  UNL1       -0.1620
     33 N          63.3793   84.1880   12.1901 N.ar    1  UNL1       -0.1859
     34 C          61.7346   87.6386   11.1232 C.ar    1  UNL1        0.0216
     35 C          60.2651   87.7891   10.8627 C.ar    1  UNL1        0.0017
     36 C          59.6216   89.1410   10.9546 C.ar    1  UNL1        0.0024
     37 C          60.4477   90.3424   11.3070 C.ar    1  UNL1        0.0296
     38 C          61.9173   90.1919   11.5675 C.ar    1  UNL1        0.1402
     39 F          62.7434   91.3934   11.9199 F       1  UNL1       -0.2042
     40 C          62.5607   88.8401   11.4756 C.ar    1  UNL1        0.0312
@<TRIPOS>BOND
     1    10    11    2
     2    11    12   am
     3    12    16    1
     4    16    17    1
     5    17    18    1
     6    18    19    1
     7    19    20    1
     8    20    21    1
     9    21    22    1
    10    22    23    1
    11    11    13   am
    12    13     1    1
    13     1     2   ar
    14     2     3   ar
    15     3     4   ar
    16     4     5   ar
    17     5     6   ar
    18     6    24    1
    19    24    25    1
    20    25    26   ar
    21    26    27   ar
    22    27    28   ar
    23    28    29   ar
    24    29    30   ar
    25    30    31   ar
    26    31    34    1
    27    34    35   ar
    28    35    36   ar
    29    36    37   ar
    30    37    38   ar
    31    38    39    1
    32    38    40   ar
    33    31    32   ar
    34    32    33   ar
    35     6     7   ar
    36     7     8   ar
    37     8     9   ar
    38    23    18    1
    39     9     1   ar
    40     8     3   ar
    41    33    25   ar
    42    33    28   ar
    43    40    34   ar
    44    12    14    1
    45    13    15    1
@<TRIPOS>MOLECULE
*****
 40 45 0 0 0
SMALL
GASTEIGER

@<TRIPOS>ATOM
      1 C          64.4088   84.9984   15.4281 C.ar    1  UNL1        0.1667
      2 N          63.5320   85.4370   16.5634 N.ar    1  UNL1       -0.2239
      3 C          63.4650   86.9354   16.5453 C.ar    1  UNL1        0.0893
      4 C          62.7512   87.9188   17.4247 C.ar    1  UNL1        0.0202
      5 C          62.8728   89.3898   17.1576 C.ar    1  UNL1        0.0081
      6 C          63.7082   89.8773   16.0111 C.ar    1  UNL1        0.0329
      7 C          64.4220   88.8939   15.1317 C.ar    1  UNL1        0.0146
      8 C          64.3004   87.4229   15.3989 C.ar    1  UNL1        0.0502
      9 S          64.8837   86.2258   14.7084 S.2     1  UNL1       -0.0513
     10 O          62.3023   83.1833   14.3021 O.2     1  UNL1       -0.2524
     11 C          63.6975   82.6738   14.5116 C.2     1  UNL1        0.3059
     12 N          64.0394   81.2567   14.1582 N.am    1  UNL1       -0.2872
     13 N          64.7507   83.5813   15.0746 N.am    1  UNL1       -0.2485
     14 H          64.9551   80.9223   14.2957 H       1  UNL1        0.1510
     15 H          65.6664   83.2469   15.2122 H       1  UNL1        0.1583
     16 C          62.9861   80.3491   13.5951 C.3     1  UNL1        0.1082
     17 C          62.5090   80.5377   12.1856 C.3     1  UNL1        0.0938
     18 N          62.8788   81.7785   11.4283 N.3     1  UNL1       -0.2670
     19 C          64.0287   81.7548   10.4653 C.3     1  UNL1        0.1047
     20 C          64.3985   82.9956    9.7080 C.3     1  UNL1        0.1595
     21 O          63.6184   84.2602    9.9136 O.3     1  UNL1       -0.3508
     22 C          62.4685   84.2840   10.8765 C.3     1  UNL1        0.1595
     23 C          62.0987   83.0431   11.6339 C.3     1  UNL1        0.1047
     24 S          63.8298   91.3484   15.7440 S.3     1  UNL1       -0.0470
     25 C          64.5054   91.8305   14.4946 C.ar    1  UNL1        0.2171
     26 N          65.6683   92.7757   14.4295 N.ar    1  UNL1       -0.1200
     27 N          66.0183   92.9814   12.9855 N.ar    1  UNL1       -0.1264
     28 C          65.0716   92.1633   12.1581 C.ar    1  UNL1        0.1872
     29 C          64.9402   91.9741   10.6759 C.ar    1  UNL1        0.0423
     30 C          63.8738   91.0738   10.1262 C.ar    1  UNL1        0.0241
     31 C          62.9388   90.3625   11.0589 C.ar    1  UNL1        0.1016
     32 N          63.0702   90.5516   12.5411 N.ar    1  UNL1       -0.1620
     33 N          64.1366   91.4520   13.0907 N.ar    1  UNL1       -0.1859
     34 C          61.8724   89.4621   10.5093 C.ar    1  UNL1        0.0216
     35 C          61.5487   88.1724   11.2034 C.ar    1  UNL1        0.0017
     36 C          60.4823   87.2719   10.6539 C.ar    1  UNL1        0.0024
     37 C          59.7395   87.6613    9.4102 C.ar    1  UNL1        0.0296
     38 C          60.0632   88.9511    8.7161 C.ar    1  UNL1        0.1402
     39 F          59.3204   89.3404    7.4724 F       1  UNL1       -0.2042
     40 C          61.1296   89.8514    9.2656 C.ar    1  UNL1        0.0312
@<TRIPOS>BOND
     1    10    11    2
     2    11    12   am
     3    12    16    1
     4    16    17    1
     5    17    18    1
     6    18    19    1
     7    19    20    1
     8    20    21    1
     9    21    22    1
    10    22    23    1
    11    11    13   am
    12    13     1    1
    13     1     2   ar
    14     2     3   ar
    15     3     4   ar
    16     4     5   ar
    17     5     6   ar
    18     6    24    1
    19    24    25    1
    20    25    26   ar
    21    26    27   ar
    22    27    28   ar
    23    28    29   ar
    24    29    30   ar
    25    30    31   ar
    26    31    34    1
    27    34    35   ar
    28    35    36   ar
    29    36    37   ar
    30    37    38   ar
    31    38    39    1
    32    38    40   ar
    33    31    32   ar
    34    32    33   ar
    35     6     7   ar
    36     7     8   ar
    37     8     9   ar
    38    23    18    1
    39     9     1   ar
    40     8     3   ar
    41    33    25   ar
    42    33    28   ar
    43    40    34   ar
    44    12    14    1
    45    13    15    1
@<TRIPOS>MOLECULE
*****
 40 45 0 0 0
SMALL
GASTEIGER

@<TRIPOS>ATOM
      1 C          63.0465   86.6506   15.8488 C.ar    1  UNL1        0.1667
      2 N          62.4434   87.8106   16.5842 N.ar    1  UNL1       -0.2239
      3 C          63.2696   89.0271   16.2884 C.ar    1  UNL1        0.0893
      4 C          63.1516   90.4537   16.7366 C.ar    1  UNL1        0.0202
      5 C          64.1474   91.4722   16.2665 C.ar    1  UNL1        0.0081
      6 C          65.2611   91.0642   15.3483 C.ar    1  UNL1        0.0329
      7 C          65.3791   89.6376   14.9002 C.ar    1  UNL1        0.0146
      8 C          64.3833   88.6191   15.3702 C.ar    1  UNL1        0.0502
      9 S          64.2454   87.1503   15.0985 S.2     1  UNL1       -0.0513
     10 O          64.5467   84.5051   14.3837 O.2     1  UNL1       -0.2524
     11 C          63.2898   84.1662   15.1289 C.2     1  UNL1        0.3059
     12 N          62.7829   82.7544   15.1416 N.am    1  UNL1       -0.2872
     13 N          62.5397   85.2389   15.8614 N.am    1  UNL1       -0.2485
     14 H          61.9580   82.5319   15.6307 H       1  UNL1        0.1510
     15 H          61.7147   85.0164   16.3505 H       1  UNL1        0.1583
     16 C          63.5331   81.6817   14.4090 C.3     1  UNL1        0.1082
     17 C          63.1679   81.3439   12.9939 C.3     1  UNL1        0.0938
     18 N          63.2425   82.3970   11.9283 N.3     1  UNL1       -0.2670
     19 C          62.3649   83.6107   12.0105 C.3     1  UNL1        0.1047
     20 C          62.4396   84.6638   10.9449 C.3     1  UNL1        0.1595
     21 O          63.3918   84.5031    9.7971 O.3     1  UNL1       -0.3508
     22 C          64.2694   83.2894    9.7149 C.3     1  UNL1        0.1595
     23 C          64.1948   82.2363   10.7805 C.3     1  UNL1        0.1047
     24 S          66.2569   92.0828   14.8782 S.3     1  UNL1       -0.0470
     25 C          66.1671   92.6323   13.4854 C.ar    1  UNL1        0.2171
     26 N          67.0389   93.7051   12.9029 N.ar    1  UNL1       -0.1200
     27 N          66.6004   93.9413   11.4881 N.ar    1  UNL1       -0.1264
     28 C          65.4576   93.0145   11.1961 C.ar    1  UNL1        0.1872
     29 C          64.6262   92.8027    9.9657 C.ar    1  UNL1        0.0423
     30 C          63.5271   91.7820    9.9696 C.ar    1  UNL1        0.0241
     31 C          63.2593   90.9729   11.2041 C.ar    1  UNL1        0.1016
     32 N          64.0907   91.1847   12.4345 N.ar    1  UNL1       -0.1620
     33 N          65.1899   92.2055   12.4306 N.ar    1  UNL1       -0.1859
     34 C          62.1603   89.9522   11.2081 C.ar    1  UNL1        0.0216
     35 C          62.3532   88.6397   10.5082 C.ar    1  UNL1        0.0017
     36 C          61.2541   87.6189   10.5121 C.ar    1  UNL1        0.0024
     37 C          59.9621   87.9107   11.2161 C.ar    1  UNL1        0.0296
     38 C          59.7692   89.2233   11.9161 C.ar    1  UNL1        0.1402
     39 F          58.4771   89.5151   12.6201 F       1  UNL1       -0.2042
     40 C          60.8682   90.2440   11.9121 C.ar    1  UNL1        0.0312
@<TRIPOS>BOND
     1    10    11    2
     2    11    12   am
     3    12    16    1
     4    16    17    1
     5    17    18    1
     6    18    19    1
     7    19    20    1
     8    20    21    1
     9    21    22    1
    10    22    23    1
    11    11    13   am
    12    13     1    1
    13     1     2   ar
    14     2     3   ar
    15     3     4   ar
    16     4     5   ar
    17     5     6   ar
    18     6    24    1
    19    24    25    1
    20    25    26   ar
    21    26    27   ar
    22    27    28   ar
    23    28    29   ar
    24    29    30   ar
    25    30    31   ar
    26    31    34    1
    27    34    35   ar
    28    35    36   ar
    29    36    37   ar
    30    37    38   ar
    31    38    39    1
    32    38    40   ar
    33    31    32   ar
    34    32    33   ar
    35     6     7   ar
    36     7     8   ar
    37     8     9   ar
    38    23    18    1
    39     9     1   ar
    40     8     3   ar
    41    33    25   ar
    42    33    28   ar
    43    40    34   ar
    44    12    14    1
    45    13    15    1
@<TRIPOS>MOLECULE
*****
 40 45 0 0 0
SMALL
GASTEIGER

@<TRIPOS>ATOM
      1 C          59.9723   93.0656    2.3560 C.ar    1  UNL1        0.1667
      2 N          60.1330   94.5506    2.2182 N.ar    1  UNL1       -0.2239
      3 C          61.0188   94.8133    1.0365 C.ar    1  UNL1        0.0893
      4 C          61.5233   96.0860    0.4236 C.ar    1  UNL1        0.0202
      5 C          62.4144   96.0361   -0.7819 C.ar    1  UNL1        0.0081
      6 C          62.8012   94.7135   -1.3745 C.ar    1  UNL1        0.0329
      7 C          62.2967   93.4408   -0.7615 C.ar    1  UNL1        0.0146
      8 C          61.4056   93.4907    0.4440 C.ar    1  UNL1        0.0502
      9 S          60.7588   92.4106    1.2595 S.2     1  UNL1       -0.0513
     10 O          61.3578   91.5518    4.5443 O.2     1  UNL1       -0.2524
     11 C          59.8592   91.6027    4.5001 C.2     1  UNL1        0.3059
     12 N          59.0535   90.8967    5.5500 N.am    1  UNL1       -0.2872
     13 N          59.1665   92.3596    3.4059 N.am    1  UNL1       -0.2485
     14 H          58.0700   90.9301    5.5210 H       1  UNL1        0.1510
     15 H          58.1830   92.3930    3.3768 H       1  UNL1        0.1583
     16 C          59.7463   90.1398    6.6442 C.3     1  UNL1        0.1082
     17 C          59.2275   88.7995    7.0737 C.3     1  UNL1        0.0938
     18 N          59.8337   88.1045    8.2566 N.3     1  UNL1       -0.2670
     19 C          60.2764   86.6759    8.1415 C.3     1  UNL1        0.1047
     20 C          60.8826   85.9809    9.3245 C.3     1  UNL1        0.1595
     21 O          61.0462   86.7145   10.6226 O.3     1  UNL1       -0.3508
     22 C          60.6036   88.1431   10.7377 C.3     1  UNL1        0.1595
     23 C          59.9974   88.8381    9.5547 C.3     1  UNL1        0.1047
     24 S          63.6924   94.6636   -2.5801 S.3     1  UNL1       -0.0470
     25 C          63.1117   94.8515   -3.9503 C.ar    1  UNL1        0.2171
     26 N          63.8492   95.3426   -5.1606 N.ar    1  UNL1       -0.1200
     27 N          62.8849   95.3760   -6.3091 N.ar    1  UNL1       -0.1264
     28 C          61.5514   94.9055   -5.8085 C.ar    1  UNL1        0.1872
     29 C          60.2277   94.7303   -6.4918 C.ar    1  UNL1        0.0423
     30 C          59.0441   94.2311   -5.7174 C.ar    1  UNL1        0.0241
     31 C          59.1842   93.9069   -4.2595 C.ar    1  UNL1        0.1016
     32 N          60.5080   94.0821   -3.5762 N.ar    1  UNL1       -0.1620
     33 N          61.6916   94.5814   -4.3507 N.ar    1  UNL1       -0.1859
     34 C          58.0007   93.4077   -3.4851 C.ar    1  UNL1        0.0216
     35 C          57.4087   94.2500   -2.3942 C.ar    1  UNL1        0.0017
     36 C          56.2251   93.7508   -1.6196 C.ar    1  UNL1        0.0024
     37 C          55.6335   92.4092   -1.9360 C.ar    1  UNL1        0.0296
     38 C          56.2255   91.5668   -3.0270 C.ar    1  UNL1        0.1402
     39 F          55.6338   90.2251   -3.3433 F       1  UNL1       -0.2042
     40 C          57.4090   92.0660   -3.8014 C.ar    1  UNL1        0.0312
@<TRIPOS>BOND
     1    10    11    2
     2    11    12   am
     3    12    16    1
     4    16    17    1
     5    17    18    1
     6    18    19    1
     7    19    20    1
     8    20    21    1
     9    21    22    1
    10    22    23    1
    11    11    13   am
    12    13     1    1
    13     1     2   ar
    14     2     3   ar
    15     3     4   ar
    16     4     5   ar
    17     5     6   ar
    18     6    24    1
    19    24    25    1
    20    25    26   ar
    21    26    27   ar
    22    27    28   ar
    23    28    29   ar
    24    29    30   ar
    25    30    31   ar
    26    31    34    1
    27    34    35   ar
    28    35    36   ar
    29    36    37   ar
    30    37    38   ar
    31    38    39    1
    32    38    40   ar
    33    31    32   ar
    34    32    33   ar
    35     6     7   ar
    36     7     8   ar
    37     8     9   ar
    38    23    18    1
    39     9     1   ar
    40     8     3   ar
    41    33    25   ar
    42    33    28   ar
    43    40    34   ar
    44    12    14    1
    45    13    15    1
