@<TRIPOS>MOLECULE
*****
 37 41 0 0 0
SMALL
GASTEIGER

@<TRIPOS>ATOM
      1 N          61.1641   88.3629   10.0721 N.3     1  UNL1       -0.1521
      2 C          61.0923   87.1699   10.9786 C.3     1  UNL1        0.0958
      3 C          62.0717   87.3769   12.0957 C.3     1  UNL1        0.0207
      4 C          62.7488   88.6978   11.8797 C.3     1  UNL1        0.0232
      5 C          63.2132   87.9673   13.1047 C.3     1  UNL1        0.0017
      6 C          64.2663   88.5726   13.9848 C.3     1  UNL1        0.0021
      7 C          64.8550   89.9084   13.6399 C.3     1  UNL1        0.0268
      8 C          64.3906   90.6390   12.4149 C.3     1  UNL1        0.1419
      9 C          64.9793   91.9747   12.0699 C.ar    1  UNL1        0.0616
     10 C          66.0325   92.5800   12.9501 C.ar    1  UNL1        0.1407
     11 F          66.7124   92.1424   14.2135 F       1  UNL1       -0.2043
     12 C          66.6212   93.9159   12.6052 C.ar    1  UNL1        0.0319
     13 C          66.1568   94.6464   11.3801 C.ar    1  UNL1        0.0351
     14 C          65.1037   94.0411   10.5000 C.ar    1  UNL1        0.1737
     15 F          64.6393   94.7716    9.2750 F       1  UNL1       -0.2010
     16 C          64.5149   92.7052   10.8449 C.ar    1  UNL1        0.1654
     17 O          63.4619   92.1000    9.9649 O.3     1  UNL1       -0.4733
     18 C          62.8731   90.7642   10.3098 C.3     1  UNL1        0.2074
     19 C          63.3375   90.0337   11.5348 C.3     1  UNL1        0.0698
     20 C          62.1878   89.3072   10.6291 C.3     1  UNL1        0.0958
     21 O          59.8961   89.9032    9.3513 O.2     1  UNL1       -0.1495
     22 S          60.3543   88.5744    8.8274 S.O2    1  UNL1        0.1302
     23 O          60.8125   87.2457    8.3035 O.2     1  UNL1       -0.1495
     24 C          59.5445   88.7860    7.5826 C.3     1  UNL1        0.5359
     25 F          60.3027   90.0499    7.3041 F       1  UNL1       -0.1493
     26 F          58.7863   87.5220    7.8610 F       1  UNL1       -0.1493
     27 F          58.7347   88.9975    6.3378 F       1  UNL1       -0.1493
     28 S          65.4437   91.2442   13.2949 S.O2    1  UNL1        0.0093
     29 O          65.8554   91.8659   13.0128 O.2     1  UNL1       -0.1684
     30 O          65.3907   90.4176   14.5456 O.2     1  UNL1       -0.1684
     31 C          66.4969   91.8495   14.1751 C.ar    1  UNL1        0.1059
     32 C          67.9469   91.6981   13.8224 C.ar    1  UNL1        0.0192
     33 C          69.0000   92.3034   14.7025 C.ar    1  UNL1        0.0127
     34 C          68.6030   93.0601   15.9354 C.ar    1  UNL1        0.0578
     35 CL         69.6561   93.6653   16.8155 Cl      1  UNL1       -0.0822
     36 C          67.1530   93.2114   16.2881 C.ar    1  UNL1        0.0127
     37 C          66.0999   92.6061   15.4080 C.ar    1  UNL1        0.0192
@<TRIPOS>BOND
     1    21    22    2
     2    22    23    2
     3    22     1    1
     4     1     2    1
     5     2     3    1
     6     4     3    1
     7     4     5    1
     8     5     6    1
     9     6     7    1
    10     7     8    1
    11     8    28    1
    12    28    29    2
    13    28    30    2
    14    28    31    1
    15    31    32   ar
    16    32    33   ar
    17    33    34   ar
    18    34    35    1
    19    34    36   ar
    20    36    37   ar
    21     8     9    1
    22     9    10   ar
    23    10    11    1
    24    10    12   ar
    25    12    13   ar
    26    13    14   ar
    27    14    15    1
    28    14    16   ar
    29    16    17    1
    30    17    18    1
    31    19    18    1
    32     4    20    1
    33    22    24    1
    34    24    25    1
    35    24    26    1
    36    24    27    1
    37    20     1    1
    38    19     4    1
    39    19     8    1
    40    37    31   ar
    41    16     9   ar
@<TRIPOS>MOLECULE
*****
 37 41 0 0 0
SMALL
GASTEIGER

@<TRIPOS>ATOM
      1 N          63.5292   81.6664   12.5278 N.3     1  UNL1       -0.1521
      2 C          64.0777   81.0946   13.8014 C.3     1  UNL1        0.0958
      3 C          64.3898   82.2348   14.7248 C.3     1  UNL1        0.0207
      4 C          64.0342   83.5112   14.0218 C.3     1  UNL1        0.0232
      5 C          64.5842   83.7084   15.4034 C.3     1  UNL1        0.0017
      6 C          64.7341   85.0930   15.9604 C.3     1  UNL1        0.0021
      7 C          64.3340   86.2805   15.1359 C.3     1  UNL1        0.0268
      8 C          63.7841   86.0834   13.7543 C.3     1  UNL1        0.1419
      9 C          63.3841   87.2708   12.9298 C.ar    1  UNL1        0.0616
     10 C          63.5340   88.6555   13.4869 C.ar    1  UNL1        0.1407
     11 F          64.0327   89.2061   14.7900 F       1  UNL1       -0.2043
     12 C          63.1340   89.8430   12.6624 C.ar    1  UNL1        0.0319
     13 C          62.5840   89.6459   11.2808 C.ar    1  UNL1        0.0351
     14 C          62.4341   88.2612   10.7238 C.ar    1  UNL1        0.1737
     15 F          61.8842   88.0641    9.3422 F       1  UNL1       -0.2010
     16 C          62.8341   87.0737   11.5483 C.ar    1  UNL1        0.1654
     17 O          62.6842   85.6891   10.9912 O.3     1  UNL1       -0.4733
     18 C          63.0842   84.5016   11.8158 C.3     1  UNL1        0.2074
     19 C          63.6342   84.6988   13.1973 C.3     1  UNL1        0.0698
     20 C          63.5024   83.1599   12.6640 C.3     1  UNL1        0.0958
     21 O          63.7764   81.8652   10.4303 O.2     1  UNL1       -0.1495
     22 S          63.0856   80.8823   11.3285 S.O2    1  UNL1        0.1302
     23 O          62.3948   79.8994   12.2266 O.2     1  UNL1       -0.1495
     24 C          62.6419   80.0982   10.1292 C.3     1  UNL1        0.5359
     25 F          62.6306   81.3555    9.3113 F       1  UNL1       -0.1493
     26 F          62.6532   78.8408   10.9470 F       1  UNL1       -0.1493
     27 F          62.1982   79.3141    8.9299 F       1  UNL1       -0.1493
     28 S          63.9340   87.4680   14.3114 S.O2    1  UNL1        0.0093
     29 O          64.0170   88.0715   13.7971 O.2     1  UNL1       -0.1684
     30 O          63.8761   87.2698   15.7971 O.2     1  UNL1       -0.1684
     31 C          64.0840   88.8527   14.8685 C.ar    1  UNL1        0.1059
     32 C          63.0713   89.3844   15.8388 C.ar    1  UNL1        0.0192
     33 C          63.2213   90.7691   16.3958 C.ar    1  UNL1        0.0127
     34 C          64.3840   91.6219   15.9825 C.ar    1  UNL1        0.0578
     35 CL         64.5340   93.0066   16.5395 Cl      1  UNL1       -0.0822
     36 C          65.3967   91.0901   15.0122 C.ar    1  UNL1        0.0127
     37 C          65.2467   89.7055   14.4551 C.ar    1  UNL1        0.0192
@<TRIPOS>BOND
     1    21    22    2
     2    22    23    2
     3    22     1    1
     4     1     2    1
     5     2     3    1
     6     4     3    1
     7     4     5    1
     8     5     6    1
     9     6     7    1
    10     7     8    1
    11     8    28    1
    12    28    29    2
    13    28    30    2
    14    28    31    1
    15    31    32   ar
    16    32    33   ar
    17    33    34   ar
    18    34    35    1
    19    34    36   ar
    20    36    37   ar
    21     8     9    1
    22     9    10   ar
    23    10    11    1
    24    10    12   ar
    25    12    13   ar
    26    13    14   ar
    27    14    15    1
    28    14    16   ar
    29    16    17    1
    30    17    18    1
    31    19    18    1
    32     4    20    1
    33    22    24    1
    34    24    25    1
    35    24    26    1
    36    24    27    1
    37    20     1    1
    38    19     4    1
    39    19     8    1
    40    37    31   ar
    41    16     9   ar
@<TRIPOS>MOLECULE
*****
 37 41 0 0 0
SMALL
GASTEIGER

@<TRIPOS>ATOM
      1 N          60.9584   91.9429    3.4092 N.3     1  UNL1       -0.1521
      2 C          62.3938   91.8868    3.8411 C.3     1  UNL1        0.0958
      3 C          63.2412   92.3561    2.6958 C.3     1  UNL1        0.0207
      4 C          62.3296   92.7022    1.5560 C.3     1  UNL1        0.0232
      5 C          63.7849   92.9095    1.2579 C.3     1  UNL1        0.0017
      6 C          64.2095   93.4212   -0.0867 C.3     1  UNL1        0.0021
      7 C          63.1788   93.7255   -1.1331 C.3     1  UNL1        0.0268
      8 C          61.7234   93.5182   -0.8350 C.3     1  UNL1        0.1419
      9 C          60.6927   93.8225   -1.8813 C.ar    1  UNL1        0.0616
     10 C          61.1174   94.3342   -3.2259 C.ar    1  UNL1        0.1407
     11 F          62.4448   94.6493   -3.8493 F       1  UNL1       -0.2043
     12 C          60.0867   94.6386   -4.2723 C.ar    1  UNL1        0.0319
     13 C          58.6312   94.4312   -3.9741 C.ar    1  UNL1        0.0351
     14 C          58.2066   93.9196   -2.6295 C.ar    1  UNL1        0.1737
     15 F          56.7513   93.7123   -2.3314 F       1  UNL1       -0.2010
     16 C          59.2374   93.6152   -1.5831 C.ar    1  UNL1        0.1654
     17 O          58.8127   93.1036   -0.2386 O.3     1  UNL1       -0.4733
     18 C          59.8435   92.7993    0.8078 C.3     1  UNL1        0.2074
     19 C          61.2988   93.0066    0.5096 C.3     1  UNL1        0.0698
     20 C          60.9187   92.4468    1.9969 C.3     1  UNL1        0.0958
     21 O          58.9302   92.5578    3.5008 O.2     1  UNL1       -0.1495
     22 S          59.7712   91.5619    4.2430 S.O2    1  UNL1        0.1302
     23 O          60.6121   90.5660    4.9853 O.2     1  UNL1       -0.1495
     24 C          58.5840   91.1809    5.0769 C.3     1  UNL1        0.5359
     25 F          59.4123   90.1504    5.7855 F       1  UNL1       -0.1493
     26 F          57.7556   92.2113    4.3683 F       1  UNL1       -0.1493
     27 F          57.3967   90.7999    5.9108 F       1  UNL1       -0.1493
     28 S          62.1481   94.0298   -2.1795 S.O2    1  UNL1        0.0093
     29 O          61.6557   93.9159   -2.7960 O.2     1  UNL1       -0.1684
     30 O          63.4883   94.6533   -1.9240 O.2     1  UNL1       -0.1684
     31 C          62.5728   94.5415   -3.5241 C.ar    1  UNL1        0.1059
     32 C          62.9467   93.5765   -4.6099 C.ar    1  UNL1        0.0192
     33 C          63.3714   94.0882   -5.9544 C.ar    1  UNL1        0.0127
     34 C          63.4221   95.5649   -6.2132 C.ar    1  UNL1        0.0578
     35 CL         63.8467   96.0766   -7.5578 Cl      1  UNL1       -0.0822
     36 C          63.0481   96.5299   -5.1274 C.ar    1  UNL1        0.0127
     37 C          62.6235   96.0182   -3.7829 C.ar    1  UNL1        0.0192
@<TRIPOS>BOND
     1    21    22    2
     2    22    23    2
     3    22     1    1
     4     1     2    1
     5     2     3    1
     6     4     3    1
     7     4     5    1
     8     5     6    1
     9     6     7    1
    10     7     8    1
    11     8    28    1
    12    28    29    2
    13    28    30    2
    14    28    31    1
    15    31    32   ar
    16    32    33   ar
    17    33    34   ar
    18    34    35    1
    19    34    36   ar
    20    36    37   ar
    21     8     9    1
    22     9    10   ar
    23    10    11    1
    24    10    12   ar
    25    12    13   ar
    26    13    14   ar
    27    14    15    1
    28    14    16   ar
    29    16    17    1
    30    17    18    1
    31    19    18    1
    32     4    20    1
    33    22    24    1
    34    24    25    1
    35    24    26    1
    36    24    27    1
    37    20     1    1
    38    19     4    1
    39    19     8    1
    40    37    31   ar
    41    16     9   ar
@<TRIPOS>MOLECULE
*****
 37 41 0 0 0
SMALL
GASTEIGER

@<TRIPOS>ATOM
      1 N          65.3744   96.2624   -3.0626 N.3     1  UNL1       -0.1521
      2 C          66.4237   96.7707   -2.1190 C.3     1  UNL1        0.0958
      3 C          66.0454   96.3441   -0.7316 C.3     1  UNL1        0.0207
      4 C          64.7622   95.5720   -0.8178 C.3     1  UNL1        0.0232
      5 C          65.3016   95.7054    0.5755 C.3     1  UNL1        0.0017
      6 C          64.5628   95.0916    1.7277 C.3     1  UNL1        0.0021
      7 C          63.2846   94.3445    1.4865 C.3     1  UNL1        0.0268
      8 C          62.7453   94.2111    0.0932 C.3     1  UNL1        0.1419
      9 C          61.4672   93.4640   -0.1479 C.ar    1  UNL1        0.0616
     10 C          60.7284   92.8502    1.0044 C.ar    1  UNL1        0.1407
     11 F          60.9700   92.7895    2.4835 F       1  UNL1       -0.2043
     12 C          59.4502   92.1031    0.7632 C.ar    1  UNL1        0.0319
     13 C          58.9108   91.9698   -0.6302 C.ar    1  UNL1        0.0351
     14 C          59.6496   92.5836   -1.7823 C.ar    1  UNL1        0.1737
     15 F          59.1103   92.4502   -3.1756 F       1  UNL1       -0.2010
     16 C          60.9278   93.3307   -1.5412 C.ar    1  UNL1        0.1654
     17 O          61.6665   93.9444   -2.6933 O.3     1  UNL1       -0.4733
     18 C          62.9447   94.6916   -2.4522 C.3     1  UNL1        0.2074
     19 C          63.4840   94.8249   -1.0589 C.3     1  UNL1        0.0698
     20 C          64.3475   95.5216   -2.2584 C.3     1  UNL1        0.0958
     21 O          63.9088   96.0645   -4.5835 O.2     1  UNL1       -0.1495
     22 S          65.3552   96.4601   -4.5494 S.O2    1  UNL1        0.1302
     23 O          66.8017   96.8558   -4.5154 O.2     1  UNL1       -0.1495
     24 C          65.3361   96.6579   -6.0362 C.3     1  UNL1        0.5359
     25 F          66.8360   96.6573   -6.0556 F       1  UNL1       -0.1493
     26 F          63.8363   96.6585   -6.0168 F       1  UNL1       -0.1493
     27 F          65.3170   96.8557   -7.5230 F       1  UNL1       -0.1493
     28 S          62.0066   93.5974    1.2454 S.O2    1  UNL1        0.0093
     29 O          61.9580   92.8023    1.2781 O.2     1  UNL1       -0.1684
     30 O          61.5469   94.7761    2.0512 O.2     1  UNL1       -0.1684
     31 C          61.2678   92.9836    2.3976 C.ar    1  UNL1        0.1059
     32 C          59.9645   93.5712    2.8515 C.ar    1  UNL1        0.0192
     33 C          59.2258   92.9574    4.0037 C.ar    1  UNL1        0.0127
     34 C          59.7904   91.7559    4.7020 C.ar    1  UNL1        0.0578
     35 CL         59.0517   91.1421    5.8542 Cl      1  UNL1       -0.0822
     36 C          61.0937   91.1683    4.2482 C.ar    1  UNL1        0.0127
     37 C          61.8324   91.7821    3.0960 C.ar    1  UNL1        0.0192
@<TRIPOS>BOND
     1    21    22    2
     2    22    23    2
     3    22     1    1
     4     1     2    1
     5     2     3    1
     6     4     3    1
     7     4     5    1
     8     5     6    1
     9     6     7    1
    10     7     8    1
    11     8    28    1
    12    28    29    2
    13    28    30    2
    14    28    31    1
    15    31    32   ar
    16    32    33   ar
    17    33    34   ar
    18    34    35    1
    19    34    36   ar
    20    36    37   ar
    21     8     9    1
    22     9    10   ar
    23    10    11    1
    24    10    12   ar
    25    12    13   ar
    26    13    14   ar
    27    14    15    1
    28    14    16   ar
    29    16    17    1
    30    17    18    1
    31    19    18    1
    32     4    20    1
    33    22    24    1
    34    24    25    1
    35    24    26    1
    36    24    27    1
    37    20     1    1
    38    19     4    1
    39    19     8    1
    40    37    31   ar
    41    16     9   ar
@<TRIPOS>MOLECULE
*****
 37 41 0 0 0
SMALL
GASTEIGER

@<TRIPOS>ATOM
      1 N          61.9989   93.6284    0.9466 N.3     1  UNL1       -0.1521
      2 C          61.0170   92.9690    1.8691 C.3     1  UNL1        0.0958
      3 C          59.6742   92.9789    1.2007 C.3     1  UNL1        0.0207
      4 C          59.8262   93.6445   -0.1349 C.3     1  UNL1        0.0232
      5 C          58.4294   93.1858    0.1627 C.3     1  UNL1        0.0017
      6 C          57.3366   93.4105   -0.8399 C.3     1  UNL1        0.0021
      7 C          57.6405   94.0940   -2.1401 C.3     1  UNL1        0.0268
      8 C          59.0373   94.5527   -2.4377 C.3     1  UNL1        0.1419
      9 C          59.3412   95.2361   -3.7379 C.ar    1  UNL1        0.0616
     10 C          58.2483   95.4608   -4.7405 C.ar    1  UNL1        0.1407
     11 F          56.7828   95.1426   -4.7734 F       1  UNL1       -0.2043
     12 C          58.5522   96.1442   -6.0407 C.ar    1  UNL1        0.0319
     13 C          59.9491   96.6029   -6.3383 C.ar    1  UNL1        0.0351
     14 C          61.0419   96.3782   -5.3358 C.ar    1  UNL1        0.1737
     15 F          62.4387   96.8369   -5.6334 F       1  UNL1       -0.2010
     16 C          60.7380   95.6948   -4.0355 C.ar    1  UNL1        0.1654
     17 O          61.8308   95.4701   -3.0330 O.3     1  UNL1       -0.4733
     18 C          61.5269   94.7866   -1.7328 C.3     1  UNL1        0.2074
     19 C          60.1301   94.3279   -1.4352 C.3     1  UNL1        0.0698
     20 C          61.2630   94.0459   -0.2919 C.3     1  UNL1        0.0958
     21 O          63.6722   92.3493    1.1997 O.2     1  UNL1       -0.1495
     22 S          63.4602   93.8342    1.2155 S.O2    1  UNL1        0.1302
     23 O          63.2482   95.3190    1.2312 O.2     1  UNL1       -0.1495
     24 C          64.9215   94.0399    1.4843 C.3     1  UNL1        0.5359
     25 F          65.2395   92.7965    0.7079 F       1  UNL1       -0.1493
     26 F          64.6036   95.2834    2.2607 F       1  UNL1       -0.1493
     27 F          66.3828   94.2457    1.7532 F       1  UNL1       -0.1493
     28 S          57.9445   94.7774   -3.4402 S.O2    1  UNL1        0.0093
     29 O          58.1538   94.9470   -4.1906 O.2     1  UNL1       -0.1684
     30 O          56.6830   94.5969   -2.6488 O.2     1  UNL1       -0.1684
     31 C          56.8515   95.0021   -4.4428 C.ar    1  UNL1        0.1059
     32 C          56.0733   96.2843   -4.4292 C.ar    1  UNL1        0.0192
     33 C          54.9804   96.5090   -5.4318 C.ar    1  UNL1        0.0127
     34 C          54.6658   95.4514   -6.4480 C.ar    1  UNL1        0.0578
     35 CL         53.5729   95.6761   -7.4506 Cl      1  UNL1       -0.0822
     36 C          55.4441   94.1692   -6.4616 C.ar    1  UNL1        0.0127
     37 C          56.5369   93.9445   -5.4590 C.ar    1  UNL1        0.0192
@<TRIPOS>BOND
     1    21    22    2
     2    22    23    2
     3    22     1    1
     4     1     2    1
     5     2     3    1
     6     4     3    1
     7     4     5    1
     8     5     6    1
     9     6     7    1
    10     7     8    1
    11     8    28    1
    12    28    29    2
    13    28    30    2
    14    28    31    1
    15    31    32   ar
    16    32    33   ar
    17    33    34   ar
    18    34    35    1
    19    34    36   ar
    20    36    37   ar
    21     8     9    1
    22     9    10   ar
    23    10    11    1
    24    10    12   ar
    25    12    13   ar
    26    13    14   ar
    27    14    15    1
    28    14    16   ar
    29    16    17    1
    30    17    18    1
    31    19    18    1
    32     4    20    1
    33    22    24    1
    34    24    25    1
    35    24    26    1
    36    24    27    1
    37    20     1    1
    38    19     4    1
    39    19     8    1
    40    37    31   ar
    41    16     9   ar
@<TRIPOS>MOLECULE
*****
 37 41 0 0 0
SMALL
GASTEIGER

@<TRIPOS>ATOM
      1 N          63.6133   90.3565   13.6477 N.3     1  UNL1       -0.1521
      2 C          63.0879   90.8937   12.3495 C.3     1  UNL1        0.0958
      3 C          62.7908   89.7290   11.4521 C.3     1  UNL1        0.0207
      4 C          63.1327   88.4720   12.1957 C.3     1  UNL1        0.0232
      5 C          62.6069   88.2376   10.8106 C.3     1  UNL1        0.0017
      6 C          62.4653   86.8384   10.2889 C.3     1  UNL1        0.0021
      7 C          62.8495   85.6736   11.1523 C.3     1  UNL1        0.0268
      8 C          63.3753   85.9079   12.5375 C.3     1  UNL1        0.1419
      9 C          63.7595   84.7431   13.4008 C.ar    1  UNL1        0.0616
     10 C          63.6179   83.3438   12.8791 C.ar    1  UNL1        0.1407
     11 F          63.1416   82.7583   11.5828 F       1  UNL1       -0.2043
     12 C          64.0021   82.1790   13.7425 C.ar    1  UNL1        0.0319
     13 C          64.5279   82.4134   15.1277 C.ar    1  UNL1        0.0351
     14 C          64.6695   83.8126   15.6494 C.ar    1  UNL1        0.1737
     15 F          65.1953   84.0469   17.0345 F       1  UNL1       -0.2010
     16 C          64.2853   84.9774   14.7860 C.ar    1  UNL1        0.1654
     17 O          64.4269   86.3766   15.3077 O.3     1  UNL1       -0.4733
     18 C          64.0427   87.5414   14.4443 C.3     1  UNL1        0.2074
     19 C          63.5169   87.3071   13.0592 C.3     1  UNL1        0.0698
     20 C          63.6410   88.8598   13.5527 C.3     1  UNL1        0.0958
     21 O          63.0956   90.3952   15.7045 O.2     1  UNL1       -0.1495
     22 S          64.0367   91.1727   14.8329 S.O2    1  UNL1        0.1302
     23 O          64.9777   91.9502   13.9612 O.2     1  UNL1       -0.1495
     24 C          64.4600   91.9889   16.0180 C.3     1  UNL1        0.5359
     25 F          63.4527   91.2747   16.8697 F       1  UNL1       -0.1493
     26 F          65.4673   92.7031   15.1663 F       1  UNL1       -0.1493
     27 F          64.8834   92.8051   17.2032 F       1  UNL1       -0.1493
     28 S          63.2337   84.5088   12.0157 S.O2    1  UNL1        0.0093
     29 O          63.7477   83.9581   12.2767 O.2     1  UNL1       -0.1684
     30 O          62.0635   84.5867   11.0805 O.2     1  UNL1       -0.1684
     31 C          63.0921   83.1095   11.4939 C.ar    1  UNL1        0.1059
     32 C          62.1075   82.1700   12.1246 C.ar    1  UNL1        0.0192
     33 C          61.9659   80.7708   11.6028 C.ar    1  UNL1        0.0127
     34 C          62.8090   80.3112   10.4504 C.ar    1  UNL1        0.0578
     35 CL         62.6674   78.9120    9.9286 Cl      1  UNL1       -0.0822
     36 C          63.7936   81.2507    9.8197 C.ar    1  UNL1        0.0127
     37 C          63.9351   82.6499   10.3415 C.ar    1  UNL1        0.0192
@<TRIPOS>BOND
     1    21    22    2
     2    22    23    2
     3    22     1    1
     4     1     2    1
     5     2     3    1
     6     4     3    1
     7     4     5    1
     8     5     6    1
     9     6     7    1
    10     7     8    1
    11     8    28    1
    12    28    29    2
    13    28    30    2
    14    28    31    1
    15    31    32   ar
    16    32    33   ar
    17    33    34   ar
    18    34    35    1
    19    34    36   ar
    20    36    37   ar
    21     8     9    1
    22     9    10   ar
    23    10    11    1
    24    10    12   ar
    25    12    13   ar
    26    13    14   ar
    27    14    15    1
    28    14    16   ar
    29    16    17    1
    30    17    18    1
    31    19    18    1
    32     4    20    1
    33    22    24    1
    34    24    25    1
    35    24    26    1
    36    24    27    1
    37    20     1    1
    38    19     4    1
    39    19     8    1
    40    37    31   ar
    41    16     9   ar
