@<TRIPOS>MOLECULE
*****
 24 26 0 0 0
SMALL
GASTEIGER

@<TRIPOS>ATOM
      1 C          63.5199   85.9574   15.9970 C.3     1  UNL1        0.0838
      2 C          63.0324   87.0712   16.8755 C.3     1  UNL1        0.0437
      3 C          63.4689   88.3693   16.2635 C.ar    1  UNL1       -0.0247
      4 C          63.2746   89.7947   16.6882 C.ar    1  UNL1       -0.0045
      5 C          63.8377   90.9085   15.8562 C.ar    1  UNL1       -0.0003
      6 C          64.5951   90.5969   14.5995 C.ar    1  UNL1        0.0012
      7 C          64.7893   89.1715   14.1748 C.ar    1  UNL1       -0.0045
      8 C          64.2262   88.0577   15.0068 C.ar    1  UNL1       -0.0247
      9 C          64.2577   86.5671   14.8421 C.3     1  UNL1        0.0437
     10 C          65.1582   91.7108   13.7675 C.ar    1  UNL1        0.0193
     11 C          64.7727   91.8371   12.3234 C.ar    1  UNL1        0.0055
     12 C          65.3358   92.9510   11.4914 C.ar    1  UNL1        0.0497
     13 C          66.2844   93.9386   12.1036 C.ar    1  UNL1        0.2223
     14 F          66.8475   95.0525   11.2716 F       1  UNL1       -0.1832
     15 N          66.6699   93.8124   13.5477 N.ar    1  UNL1       -0.2165
     16 C          66.1068   92.6985   14.3797 C.ar    1  UNL1        0.1012
     17 N          63.3069   84.4913   16.2322 N.3     1  UNL1       -0.1841
     18 H          64.1889   84.1183   16.5834 H       1  UNL1        0.1484
     19 S          62.8818   83.6041   15.0999 S.O2    1  UNL1        0.0390
     20 O          64.1092   82.7647   15.2967 O.2     1  UNL1       -0.1576
     21 O          61.6543   84.4435   14.9031 O.2     1  UNL1       -0.1576
     22 C          62.8227   83.0732   12.5573 C.3     1  UNL1        0.0270
     23 C          62.4566   82.7168   13.9676 C.3     1  UNL1        0.1457
     24 C          61.6654   81.4732   14.2457 C.3     1  UNL1        0.0270
@<TRIPOS>BOND
     1    22    23    1
     2    23    24    1
     3    23    19    1
     4    19    20    2
     5    19    21    2
     6    19    17    1
     7    17     1    1
     8     1     2    1
     9     2     3    1
    10     3     4   ar
    11     4     5   ar
    12     5     6   ar
    13     6    10    1
    14    10    11   ar
    15    11    12   ar
    16    12    13   ar
    17    13    14    1
    18    13    15   ar
    19    15    16   ar
    20     6     7   ar
    21     7     8   ar
    22     8     9    1
    23     9     1    1
    24     8     3   ar
    25    16    10   ar
    26    17    18    1
@<TRIPOS>MOLECULE
*****
 24 26 0 0 0
SMALL
GASTEIGER

@<TRIPOS>ATOM
      1 C          63.8379   90.3256   13.0596 C.3     1  UNL1        0.0838
      2 C          63.0604   89.9223   11.8419 C.3     1  UNL1        0.0437
      3 C          62.8784   88.4339   11.8800 C.ar    1  UNL1       -0.0247
      4 C          62.1931   87.4823   10.9448 C.ar    1  UNL1       -0.0045
      5 C          62.1728   86.0140   11.2508 C.ar    1  UNL1       -0.0003
      6 C          62.8379   85.4973   12.4921 C.ar    1  UNL1        0.0012
      7 C          63.5232   86.4490   13.4273 C.ar    1  UNL1       -0.0045
      8 C          63.5435   87.9172   13.1213 C.ar    1  UNL1       -0.0247
      9 C          64.1364   89.0864   13.8503 C.3     1  UNL1        0.0437
     10 C          62.8175   84.0290   12.7982 C.ar    1  UNL1        0.0193
     11 C          62.8739   83.0293   11.6814 C.ar    1  UNL1        0.0055
     12 C          62.8536   81.5609   11.9874 C.ar    1  UNL1        0.0497
     13 C          62.7769   81.0924   13.4103 C.ar    1  UNL1        0.2223
     14 F          62.7566   79.6241   13.7164 F       1  UNL1       -0.1832
     15 N          62.7206   82.0922   14.5271 N.ar    1  UNL1       -0.2165
     16 C          62.7409   83.5605   14.2211 C.ar    1  UNL1        0.1012
     17 N          64.2453   91.7228   13.4229 N.3     1  UNL1       -0.1841
     18 H          64.2411   92.2648   12.5588 H       1  UNL1        0.1484
     19 S          65.5693   91.9703   14.0828 S.O2    1  UNL1        0.0390
     20 O          66.2437   91.9338   12.7435 O.2     1  UNL1       -0.1576
     21 O          64.8949   92.0068   15.4222 O.2     1  UNL1       -0.1576
     22 C          68.1658   91.9213   14.0059 C.3     1  UNL1        0.0270
     23 C          66.8934   92.2179   14.7428 C.3     1  UNL1        0.1457
     24 C          66.9451   92.7621   16.1397 C.3     1  UNL1        0.0270
@<TRIPOS>BOND
     1    22    23    1
     2    23    24    1
     3    23    19    1
     4    19    20    2
     5    19    21    2
     6    19    17    1
     7    17     1    1
     8     1     2    1
     9     2     3    1
    10     3     4   ar
    11     4     5   ar
    12     5     6   ar
    13     6    10    1
    14    10    11   ar
    15    11    12   ar
    16    12    13   ar
    17    13    14    1
    18    13    15   ar
    19    15    16   ar
    20     6     7   ar
    21     7     8   ar
    22     8     9    1
    23     9     1    1
    24     8     3   ar
    25    16    10   ar
    26    17    18    1
@<TRIPOS>MOLECULE
*****
 24 26 0 0 0
SMALL
GASTEIGER

@<TRIPOS>ATOM
      1 C          63.8023   90.1108   13.1404 C.3     1  UNL1        0.0838
      2 C          64.4557   89.5210   14.3550 C.3     1  UNL1        0.0437
      3 C          64.2926   88.0312   14.2918 C.ar    1  UNL1       -0.0247
      4 C          64.7335   86.9333   15.2139 C.ar    1  UNL1       -0.0045
      5 C          64.4201   85.5044   14.8823 C.ar    1  UNL1       -0.0003
      6 C          63.6660   85.1734   13.6286 C.ar    1  UNL1        0.0012
      7 C          63.2251   86.2713   12.7066 C.ar    1  UNL1       -0.0045
      8 C          63.5385   87.7002   13.0382 C.ar    1  UNL1       -0.0247
      9 C          63.2354   88.9854   12.3266 C.3     1  UNL1        0.0437
     10 C          63.3526   83.7444   13.2970 C.ar    1  UNL1        0.0193
     11 C          63.3753   83.2833   11.8698 C.ar    1  UNL1        0.0055
     12 C          63.0619   81.8543   11.5383 C.ar    1  UNL1        0.0497
     13 C          62.7260   80.8865   12.6339 C.ar    1  UNL1        0.2223
     14 F          62.4126   79.4576   12.3024 F       1  UNL1       -0.1832
     15 N          62.7033   81.3477   14.0611 N.ar    1  UNL1       -0.2165
     16 C          63.0166   82.7766   14.3926 C.ar    1  UNL1        0.1012
     17 N          63.7286   91.5696   12.7995 N.3     1  UNL1       -0.1841
     18 H          62.9606   91.6789   12.1373 H       1  UNL1        0.1484
     19 S          64.9178   92.2610   12.2013 S.O2    1  UNL1        0.0390
     20 O          65.4042   92.6137   13.5757 O.2     1  UNL1       -0.1576
     21 O          64.4314   91.9083   10.8269 O.2     1  UNL1       -0.1576
     22 C          66.1203   94.4469   11.4761 C.3     1  UNL1        0.0270
     23 C          66.1070   92.9524   11.6031 C.3     1  UNL1        0.1457
     24 C          67.2830   92.1492   11.1318 C.3     1  UNL1        0.0270
@<TRIPOS>BOND
     1    22    23    1
     2    23    24    1
     3    23    19    1
     4    19    20    2
     5    19    21    2
     6    19    17    1
     7    17     1    1
     8     1     2    1
     9     2     3    1
    10     3     4   ar
    11     4     5   ar
    12     5     6   ar
    13     6    10    1
    14    10    11   ar
    15    11    12   ar
    16    12    13   ar
    17    13    14    1
    18    13    15   ar
    19    15    16   ar
    20     6     7   ar
    21     7     8   ar
    22     8     9    1
    23     9     1    1
    24     8     3   ar
    25    16    10   ar
    26    17    18    1
@<TRIPOS>MOLECULE
*****
 24 26 0 0 0
SMALL
GASTEIGER

@<TRIPOS>ATOM
      1 C          63.4136   84.7381   15.7286 C.3     1  UNL1        0.0838
      2 C          62.8501   85.7014   16.7309 C.3     1  UNL1        0.0437
      3 C          63.2553   87.0864   16.3214 C.ar    1  UNL1       -0.0247
      4 C          62.9883   88.4313   16.9295 C.ar    1  UNL1       -0.0045
      5 C          63.5353   89.6689   16.2821 C.ar    1  UNL1       -0.0003
      6 C          64.3492   89.5616   15.0267 C.ar    1  UNL1        0.0012
      7 C          64.6162   88.2167   14.4187 C.ar    1  UNL1       -0.0045
      8 C          64.0693   86.9790   15.0660 C.ar    1  UNL1       -0.0247
      9 C          64.1670   85.5278   14.6997 C.3     1  UNL1        0.0437
     10 C          64.8962   90.7994   14.3794 C.ar    1  UNL1        0.0193
     11 C          65.9597   91.5999   15.0707 C.ar    1  UNL1        0.0055
     12 C          66.5067   92.8376   14.4234 C.ar    1  UNL1        0.0497
     13 C          65.9900   93.2747   13.0848 C.ar    1  UNL1        0.2223
     14 F          66.5369   94.5124   12.4374 F       1  UNL1       -0.1832
     15 N          64.9264   92.4741   12.3935 N.ar    1  UNL1       -0.2165
     16 C          64.3795   91.2365   13.0408 C.ar    1  UNL1        0.1012
     17 N          63.2519   83.2470   15.7513 N.3     1  UNL1       -0.1841
     18 H          64.1399   82.8594   16.0702 H       1  UNL1        0.1484
     19 S          62.8852   82.5132   14.4955 S.O2    1  UNL1        0.0390
     20 O          61.6740   83.3842   14.3402 O.2     1  UNL1       -0.1576
     21 O          64.0965   81.6422   14.6507 O.2     1  UNL1       -0.1576
     22 C          62.1106   80.3374   13.3055 C.3     1  UNL1        0.0270
     23 C          62.5184   81.7794   13.2397 C.3     1  UNL1        0.1457
     24 C          62.5595   82.4876   11.9180 C.3     1  UNL1        0.0270
@<TRIPOS>BOND
     1    22    23    1
     2    23    24    1
     3    23    19    1
     4    19    20    2
     5    19    21    2
     6    19    17    1
     7    17     1    1
     8     1     2    1
     9     2     3    1
    10     3     4   ar
    11     4     5   ar
    12     5     6   ar
    13     6    10    1
    14    10    11   ar
    15    11    12   ar
    16    12    13   ar
    17    13    14    1
    18    13    15   ar
    19    15    16   ar
    20     6     7   ar
    21     7     8   ar
    22     8     9    1
    23     9     1    1
    24     8     3   ar
    25    16    10   ar
    26    17    18    1
@<TRIPOS>MOLECULE
*****
 24 26 0 0 0
SMALL
GASTEIGER

@<TRIPOS>ATOM
      1 C          65.6408   92.9113   11.7528 C.3     1  UNL1        0.0838
      2 C          65.2367   91.9923   12.8673 C.3     1  UNL1        0.0437
      3 C          64.2467   91.0072   12.3201 C.ar    1  UNL1       -0.0247
      4 C          63.5077   89.8679   12.9570 C.ar    1  UNL1       -0.0045
      5 C          62.5608   89.0386   12.1410 C.ar    1  UNL1       -0.0003
      6 C          62.3531   89.3486   10.6882 C.ar    1  UNL1        0.0012
      7 C          63.0922   90.4880   10.0513 C.ar    1  UNL1       -0.0045
      8 C          64.0390   91.3172   10.8673 C.ar    1  UNL1       -0.0247
      9 C          64.9006   92.4940   10.5167 C.3     1  UNL1        0.0437
     10 C          61.4062   88.5193    9.8722 C.ar    1  UNL1        0.0193
     11 C          61.5788   87.0308    9.8061 C.ar    1  UNL1        0.0055
     12 C          60.6319   86.2014    8.9902 C.ar    1  UNL1        0.0497
     13 C          59.5125   86.8607    8.2403 C.ar    1  UNL1        0.2223
     14 F          58.5657   86.0315    7.4244 F       1  UNL1       -0.1832
     15 N          59.3400   88.3494    8.3065 N.ar    1  UNL1       -0.2165
     16 C          60.2868   89.1786    9.1224 C.ar    1  UNL1        0.1012
     17 N          66.6142   94.0478   11.8562 N.3     1  UNL1       -0.1841
     18 H          66.4840   94.4640   12.7782 H       1  UNL1        0.1484
     19 S          66.5640   95.1710   10.8632 S.O2    1  UNL1        0.0390
     20 O          67.6548   94.5168   10.0682 O.2     1  UNL1       -0.1576
     21 O          65.4731   95.8251   11.6582 O.2     1  UNL1       -0.1576
     22 C          67.7861   96.8557    9.3081 C.3     1  UNL1        0.0270
     23 C          66.5138   96.2941    9.8701 C.3     1  UNL1        0.1457
     24 C          65.1913   96.8556    9.4391 C.3     1  UNL1        0.0270
@<TRIPOS>BOND
     1    22    23    1
     2    23    24    1
     3    23    19    1
     4    19    20    2
     5    19    21    2
     6    19    17    1
     7    17     1    1
     8     1     2    1
     9     2     3    1
    10     3     4   ar
    11     4     5   ar
    12     5     6   ar
    13     6    10    1
    14    10    11   ar
    15    11    12   ar
    16    12    13   ar
    17    13    14    1
    18    13    15   ar
    19    15    16   ar
    20     6     7   ar
    21     7     8   ar
    22     8     9    1
    23     9     1    1
    24     8     3   ar
    25    16    10   ar
    26    17    18    1
@<TRIPOS>MOLECULE
*****
 24 26 0 0 0
SMALL
GASTEIGER

@<TRIPOS>ATOM
      1 C          61.8305   89.9404   10.4157 C.3     1  UNL1        0.0838
      2 C          61.8753   89.1336   11.6795 C.3     1  UNL1        0.0437
      3 C          62.9928   89.6634   12.5283 C.ar    1  UNL1       -0.0247
      4 C          63.5057   89.2596   13.8788 C.ar    1  UNL1       -0.0045
      5 C          64.6644   89.9900   14.4901 C.ar    1  UNL1       -0.0003
      6 C          65.3103   91.1243   13.7509 C.ar    1  UNL1        0.0012
      7 C          64.7974   91.5281   12.4005 C.ar    1  UNL1       -0.0045
      8 C          63.6386   90.7977   11.7892 C.ar    1  UNL1       -0.0247
      9 C          62.9202   90.9688   10.4835 C.3     1  UNL1        0.0437
     10 C          66.4691   91.8547   14.3623 C.ar    1  UNL1        0.0193
     11 C          66.3139   92.5259   15.6947 C.ar    1  UNL1        0.0055
     12 C          67.4727   93.2564   16.3061 C.ar    1  UNL1        0.0497
     13 C          68.7866   93.3155   15.5850 C.ar    1  UNL1        0.2223
     14 F          69.9454   94.0459   16.1963 F       1  UNL1       -0.1832
     15 N          68.9418   92.6442   14.2525 N.ar    1  UNL1       -0.2165
     16 C          67.7830   91.9139   13.6412 C.ar    1  UNL1        0.1012
     17 N          60.8653   89.7518    9.2831 N.3     1  UNL1       -0.1841
     18 H          59.9718   90.1357    9.5906 H       1  UNL1        0.1484
     19 S          60.5868   88.3753    8.7563 S.O2    1  UNL1        0.0390
     20 O          59.2942   88.8610    8.1705 O.2     1  UNL1       -0.1576
     21 O          61.8794   87.8896    9.3421 O.2     1  UNL1       -0.1576
     22 C          61.3702   85.9414    8.2951 C.3     1  UNL1        0.0270
     23 C          60.3082   86.9987    8.2295 C.3     1  UNL1        0.1457
     24 C          58.9677   86.6794    7.6371 C.3     1  UNL1        0.0270
@<TRIPOS>BOND
     1    22    23    1
     2    23    24    1
     3    23    19    1
     4    19    20    2
     5    19    21    2
     6    19    17    1
     7    17     1    1
     8     1     2    1
     9     2     3    1
    10     3     4   ar
    11     4     5   ar
    12     5     6   ar
    13     6    10    1
    14    10    11   ar
    15    11    12   ar
    16    12    13   ar
    17    13    14    1
    18    13    15   ar
    19    15    16   ar
    20     6     7   ar
    21     7     8   ar
    22     8     9    1
    23     9     1    1
    24     8     3   ar
    25    16    10   ar
    26    17    18    1
@<TRIPOS>MOLECULE
*****
 24 26 0 0 0
SMALL
GASTEIGER

@<TRIPOS>ATOM
      1 C          64.2520   90.5544   15.6129 C.3     1  UNL1        0.0838
      2 C          63.5593   89.8866   16.7636 C.3     1  UNL1        0.0437
      3 C          63.4127   88.4305   16.4345 C.ar    1  UNL1       -0.0247
      4 C          62.8087   87.2859   17.1929 C.ar    1  UNL1       -0.0045
      5 C          62.8068   85.9094   16.5972 C.ar    1  UNL1       -0.0003
      6 C          63.4088   85.6773   15.2430 C.ar    1  UNL1        0.0012
      7 C          64.0127   86.8218   14.4846 C.ar    1  UNL1       -0.0045
      8 C          64.0147   88.1984   15.0804 C.ar    1  UNL1       -0.0247
      9 C          64.5334   89.5111   14.5726 C.3     1  UNL1        0.0437
     10 C          63.4068   84.3006   14.6473 C.ar    1  UNL1        0.0193
     11 C          64.3147   83.9798   13.4972 C.ar    1  UNL1        0.0055
     12 C          64.3128   82.6031   12.9015 C.ar    1  UNL1        0.0497
     13 C          63.4029   81.5473   13.4559 C.ar    1  UNL1        0.2223
     14 F          63.4009   80.1707   12.8603 F       1  UNL1       -0.1832
     15 N          62.4949   81.8682   14.6061 N.ar    1  UNL1       -0.2165
     16 C          62.4969   83.2448   15.2017 C.ar    1  UNL1        0.1012
     17 N          64.6018   92.0100   15.5190 N.3     1  UNL1       -0.1841
     18 H          64.0032   92.4107   14.7968 H       1  UNL1        0.1484
     19 S          66.0067   92.4244   15.1959 S.O2    1  UNL1        0.0390
     20 O          65.6689   92.4302   13.7345 O.2     1  UNL1       -0.1576
     21 O          66.3445   92.4186   16.6573 O.2     1  UNL1       -0.1576
     22 C          68.1111   92.2537   13.6818 C.3     1  UNL1        0.0270
     23 C          67.4117   92.8388   14.8727 C.3     1  UNL1        0.1457
     24 C          68.1172   93.8384   15.7406 C.3     1  UNL1        0.0270
@<TRIPOS>BOND
     1    22    23    1
     2    23    24    1
     3    23    19    1
     4    19    20    2
     5    19    21    2
     6    19    17    1
     7    17     1    1
     8     1     2    1
     9     2     3    1
    10     3     4   ar
    11     4     5   ar
    12     5     6   ar
    13     6    10    1
    14    10    11   ar
    15    11    12   ar
    16    12    13   ar
    17    13    14    1
    18    13    15   ar
    19    15    16   ar
    20     6     7   ar
    21     7     8   ar
    22     8     9    1
    23     9     1    1
    24     8     3   ar
    25    16    10   ar
    26    17    18    1
@<TRIPOS>MOLECULE
*****
 24 26 0 0 0
SMALL
GASTEIGER

@<TRIPOS>ATOM
      1 C          65.1724   91.3392   14.2455 C.3     1  UNL1        0.0838
      2 C          65.0662   92.1879   13.0133 C.3     1  UNL1        0.0437
      3 C          64.2156   91.4557   12.0180 C.ar    1  UNL1       -0.0247
      4 C          63.7689   91.8057   10.6295 C.ar    1  UNL1       -0.0045
      5 C          62.9027   90.8545    9.8583 C.ar    1  UNL1       -0.0003
      6 C          62.4833   89.5533   10.4754 C.ar    1  UNL1        0.0012
      7 C          62.9300   89.2033   11.8639 C.ar    1  UNL1       -0.0045
      8 C          63.7962   90.1545   12.6352 C.ar    1  UNL1       -0.0247
      9 C          64.3875   90.0825   14.0118 C.3     1  UNL1        0.0437
     10 C          61.6170   88.6021    9.7040 C.ar    1  UNL1        0.0193
     11 C          61.9508   87.1401    9.6736 C.ar    1  UNL1        0.0055
     12 C          61.0846   86.1889    8.9022 C.ar    1  UNL1        0.0497
     13 C          59.8846   86.6998    8.1613 C.ar    1  UNL1        0.2223
     14 F          59.0184   85.7487    7.3900 F       1  UNL1       -0.1832
     15 N          59.5508   88.1620    8.1918 N.ar    1  UNL1       -0.2165
     16 C          60.4170   89.1131    8.9631 C.ar    1  UNL1        0.1012
     17 N          65.9304   91.6863   15.4925 N.3     1  UNL1       -0.1841
     18 H          65.3471   92.3352   16.0207 H       1  UNL1        0.1484
     19 S          67.2913   92.3093   15.3940 S.O2    1  UNL1        0.0390
     20 O          67.6545   91.3437   14.3051 O.2     1  UNL1       -0.1576
     21 O          66.9281   93.2748   16.4829 O.2     1  UNL1       -0.1576
     22 C          69.6670   92.3710   14.3440 C.3     1  UNL1        0.0270
     23 C          68.6523   92.9323   15.2954 C.3     1  UNL1        0.1457
     24 C          68.9986   94.1166   16.1484 C.3     1  UNL1        0.0270
@<TRIPOS>BOND
     1    22    23    1
     2    23    24    1
     3    23    19    1
     4    19    20    2
     5    19    21    2
     6    19    17    1
     7    17     1    1
     8     1     2    1
     9     2     3    1
    10     3     4   ar
    11     4     5   ar
    12     5     6   ar
    13     6    10    1
    14    10    11   ar
    15    11    12   ar
    16    12    13   ar
    17    13    14    1
    18    13    15   ar
    19    15    16   ar
    20     6     7   ar
    21     7     8   ar
    22     8     9    1
    23     9     1    1
    24     8     3   ar
    25    16    10   ar
    26    17    18    1
@<TRIPOS>MOLECULE
*****
 24 26 0 0 0
SMALL
GASTEIGER

@<TRIPOS>ATOM
      1 C          63.5624   90.4179   13.1256 C.3     1  UNL1        0.0838
      2 C          63.6013   89.0269   13.6856 C.3     1  UNL1        0.0437
      3 C          63.2120   88.0761   12.5927 C.ar    1  UNL1       -0.0247
      4 C          63.0759   86.5826   12.5630 C.ar    1  UNL1       -0.0045
      5 C          62.6602   85.8925   11.2977 C.ar    1  UNL1       -0.0003
      6 C          62.3806   86.6959   10.0622 C.ar    1  UNL1        0.0012
      7 C          62.5167   88.1894   10.0920 C.ar    1  UNL1       -0.0045
      8 C          62.9324   88.8795   11.3573 C.ar    1  UNL1       -0.0247
      9 C          63.1490   90.3268   11.6866 C.3     1  UNL1        0.0437
     10 C          61.9649   86.0057    8.7969 C.ar    1  UNL1        0.0193
     11 C          62.9707   85.2267    8.0022 C.ar    1  UNL1        0.0055
     12 C          62.5550   84.5366    6.7369 C.ar    1  UNL1        0.0497
     13 C          61.1335   84.6254    6.2664 C.ar    1  UNL1        0.2223
     14 F          60.7178   83.9353    5.0012 F       1  UNL1       -0.1832
     15 N          60.1277   85.4044    7.0611 N.ar    1  UNL1       -0.2165
     16 C          60.5434   86.0945    8.3264 C.ar    1  UNL1        0.1012
     17 N          63.8810   91.6786   13.8733 N.3     1  UNL1       -0.1841
     18 H          63.6266   92.4552   13.2629 H       1  UNL1        0.1484
     19 S          65.2814   91.9382   14.3436 S.O2    1  UNL1        0.0390
     20 O          64.8111   91.8969   15.7673 O.2     1  UNL1       -0.1576
     21 O          65.7518   91.9795   12.9199 O.2     1  UNL1       -0.1576
     22 C          67.8446   91.8715   13.9241 C.3     1  UNL1        0.0270
     23 C          66.6820   92.1978   14.8139 C.3     1  UNL1        0.1457
     24 C          66.9199   92.7837   16.1741 C.3     1  UNL1        0.0270
@<TRIPOS>BOND
     1    22    23    1
     2    23    24    1
     3    23    19    1
     4    19    20    2
     5    19    21    2
     6    19    17    1
     7    17     1    1
     8     1     2    1
     9     2     3    1
    10     3     4   ar
    11     4     5   ar
    12     5     6   ar
    13     6    10    1
    14    10    11   ar
    15    11    12   ar
    16    12    13   ar
    17    13    14    1
    18    13    15   ar
    19    15    16   ar
    20     6     7   ar
    21     7     8   ar
    22     8     9    1
    23     9     1    1
    24     8     3   ar
    25    16    10   ar
    26    17    18    1
