@<TRIPOS>MOLECULE
*****
 25 28 0 0 0
SMALL
GASTEIGER

@<TRIPOS>ATOM
      1 C          62.0406   89.3114   11.6551 C.ar    1  UNL1        0.1917
      2 N          62.0426   88.8418   13.0797 N.ar    1  UNL1       -0.1268
      3 N          63.0642   89.6434   13.8304 N.ar    1  UNL1       -0.1316
      4 C          63.6936   90.6084   12.8699 C.ar    1  UNL1        0.1615
      5 N          63.0609   90.4032   11.5254 N.ar    1  UNL1       -0.2940
      6 C          63.4957   91.2370   10.3568 C.3     1  UNL1        0.1302
      7 C          64.5632   92.2761   10.5326 C.3     1  UNL1        0.1186
      8 N          65.1958   92.4814   11.8771 N.am    1  UNL1       -0.2688
      9 C          66.2633   93.5204   12.0530 C.2     1  UNL1        0.2494
     10 O          66.8959   93.7256   13.3974 O.2     1  UNL1       -0.2699
     11 C          64.7610   91.6475   13.0457 C.3     1  UNL1        0.1343
     12 C          65.3937   91.8527   14.3902 C.3     1  UNL1        0.0298
     13 C          66.6980   94.3542   10.8844 C.ar    1  UNL1        0.0537
     14 C          67.3879   93.7099    9.7186 C.ar    1  UNL1        0.0068
     15 C          67.8226   94.5438    8.5499 C.ar    1  UNL1        0.0298
     16 C          67.5676   96.0219    8.5471 C.ar    1  UNL1        0.1401
     17 F          68.0023   96.8558    7.3785 F       1  UNL1       -0.2042
     18 C          66.8777   96.6662    9.7129 C.ar    1  UNL1        0.0298
     19 C          66.4430   95.8324   10.8815 C.ar    1  UNL1        0.0068
     20 C          59.3295   88.9316    7.1399 C.3     1  UNL1        0.0744
     21 C          59.9247   88.6075    8.4781 C.ar    1  UNL1        0.1481
     22 N          59.7404   87.3277    9.2385 N.ar    1  UNL1       -0.1929
     23 S          60.5106   87.4357   10.5212 S.2     1  UNL1        0.0369
     24 C          61.1709   88.7821   10.5535 C.ar    1  UNL1        0.1652
     25 N          60.8088   89.5064    9.2908 N.ar    1  UNL1       -0.2190
@<TRIPOS>BOND
     1    20    21    1
     2    21    22   ar
     3    22    23   ar
     4    23    24   ar
     5    24     1    1
     6     1     2   ar
     7     2     3   ar
     8     3     4   ar
     9     4     5   ar
    10     5     6    1
    11     6     7    1
    12     7     8    1
    13     8     9   am
    14     9    10    2
    15     9    13    1
    16    13    14   ar
    17    14    15   ar
    18    15    16   ar
    19    16    17    1
    20    16    18   ar
    21    18    19   ar
    22     8    11    1
    23    11    12    1
    24    24    25   ar
    25    25    21   ar
    26     5     1   ar
    27    19    13   ar
    28    11     4    1
@<TRIPOS>MOLECULE
*****
 25 28 0 0 0
SMALL
GASTEIGER

@<TRIPOS>ATOM
      1 C          66.0334   93.4625   12.1787 C.ar    1  UNL1        0.1917
      2 N          66.5879   93.2733   13.5596 N.ar    1  UNL1       -0.1268
      3 N          66.0258   91.9979   14.1140 N.ar    1  UNL1       -0.1316
      4 C          65.1240   91.3988   13.0758 C.ar    1  UNL1        0.1615
      5 N          65.1287   92.3040   11.8797 N.ar    1  UNL1       -0.2940
      6 C          64.3086   91.9564   10.6728 C.3     1  UNL1        0.1302
      7 C          63.4837   90.7036   10.6620 C.3     1  UNL1        0.1186
      8 N          63.4790   89.7984   11.8581 N.am    1  UNL1       -0.2688
      9 C          62.6541   88.5457   11.8473 C.2     1  UNL1        0.2494
     10 O          62.6494   87.6405   13.0434 O.2     1  UNL1       -0.2699
     11 C          64.2991   90.1461   13.0650 C.3     1  UNL1        0.1343
     12 C          64.2944   89.2409   14.2611 C.3     1  UNL1        0.0298
     13 C          61.8340   88.1981   10.6405 C.ar    1  UNL1        0.0537
     14 C          60.8044   89.1623   10.1302 C.ar    1  UNL1        0.0068
     15 C          59.9843   88.8146    8.9233 C.ar    1  UNL1        0.0298
     16 C          60.1938   87.5029    8.2267 C.ar    1  UNL1        0.1401
     17 F          59.3736   87.1552    7.0197 F       1  UNL1       -0.2042
     18 C          61.2233   86.5387    8.7369 C.ar    1  UNL1        0.0298
     19 C          62.0434   86.8862    9.9438 C.ar    1  UNL1        0.0068
     20 C          67.5737   96.2538    7.9696 C.3     1  UNL1        0.0744
     21 C          67.0394   95.8919    9.3237 C.ar    1  UNL1        0.1481
     22 N          66.5405   96.8541   10.3606 N.ar    1  UNL1       -0.1929
     23 S          66.1029   96.0611   11.5564 S.2     1  UNL1        0.0369
     24 C          66.3314   94.6089   11.2584 C.ar    1  UNL1        0.1652
     25 N          66.9102   94.5043    9.8785 N.ar    1  UNL1       -0.2190
@<TRIPOS>BOND
     1    20    21    1
     2    21    22   ar
     3    22    23   ar
     4    23    24   ar
     5    24     1    1
     6     1     2   ar
     7     2     3   ar
     8     3     4   ar
     9     4     5   ar
    10     5     6    1
    11     6     7    1
    12     7     8    1
    13     8     9   am
    14     9    10    2
    15     9    13    1
    16    13    14   ar
    17    14    15   ar
    18    15    16   ar
    19    16    17    1
    20    16    18   ar
    21    18    19   ar
    22     8    11    1
    23    11    12    1
    24    24    25   ar
    25    25    21   ar
    26     5     1   ar
    27    19    13   ar
    28    11     4    1
@<TRIPOS>MOLECULE
*****
 25 28 0 0 0
SMALL
GASTEIGER

@<TRIPOS>ATOM
      1 C          63.1552   84.8620   15.5208 C.ar    1  UNL1        0.1917
      2 N          62.6367   84.8829   16.9282 N.ar    1  UNL1       -0.1268
      3 N          62.6420   86.3057   17.4030 N.ar    1  UNL1       -0.1316
      4 C          63.1638   87.1642   16.2891 C.ar    1  UNL1        0.1615
      5 N          63.4809   86.2719   15.1258 N.ar    1  UNL1       -0.2940
      6 C          64.0254   86.8585   13.8572 C.3     1  UNL1        0.1302
      7 C          64.2527   88.3375   13.7518 C.3     1  UNL1        0.1186
      8 N          63.9355   89.2298   14.9151 N.am    1  UNL1       -0.2688
      9 C          64.1628   90.7087   14.8097 C.2     1  UNL1        0.2494
     10 O          63.8457   91.6010   15.9730 O.2     1  UNL1       -0.2699
     11 C          63.3911   88.6431   16.1837 C.3     1  UNL1        0.1343
     12 C          63.0739   89.5354   17.3470 C.3     1  UNL1        0.0298
     13 C          64.7073   91.2953   13.5411 C.ar    1  UNL1        0.0537
     14 C          66.0789   91.9023   13.5236 C.ar    1  UNL1        0.0068
     15 C          66.6233   92.4889   12.2549 C.ar    1  UNL1        0.0298
     16 C          65.7962   92.4685   11.0038 C.ar    1  UNL1        0.1401
     17 F          66.3406   93.0551    9.7351 F       1  UNL1       -0.2042
     18 C          64.4246   91.8615   11.0213 C.ar    1  UNL1        0.0298
     19 C          63.8801   91.2749   12.2899 C.ar    1  UNL1        0.0068
     20 C          62.4631   80.0690   13.4164 C.3     1  UNL1        0.0744
     21 C          63.0010   81.4417   13.6923 C.ar    1  UNL1        0.1481
     22 N          64.1418   82.1020   12.9763 N.ar    1  UNL1       -0.1929
     23 S          64.3384   83.4636   13.5741 S.2     1  UNL1        0.0369
     24 C          63.3191   83.6449   14.6596 C.ar    1  UNL1        0.1652
     25 N          62.4925   82.3953   14.7326 N.ar    1  UNL1       -0.2190
@<TRIPOS>BOND
     1    20    21    1
     2    21    22   ar
     3    22    23   ar
     4    23    24   ar
     5    24     1    1
     6     1     2   ar
     7     2     3   ar
     8     3     4   ar
     9     4     5   ar
    10     5     6    1
    11     6     7    1
    12     7     8    1
    13     8     9   am
    14     9    10    2
    15     9    13    1
    16    13    14   ar
    17    14    15   ar
    18    15    16   ar
    19    16    17    1
    20    16    18   ar
    21    18    19   ar
    22     8    11    1
    23    11    12    1
    24    24    25   ar
    25    25    21   ar
    26     5     1   ar
    27    19    13   ar
    28    11     4    1
@<TRIPOS>MOLECULE
*****
 25 28 0 0 0
SMALL
GASTEIGER

@<TRIPOS>ATOM
      1 C          61.3590   89.0449    9.9513 C.ar    1  UNL1        0.1917
      2 N          61.9710   90.2985   10.5028 N.ar    1  UNL1       -0.1268
      3 N          62.8103   89.9221   11.6876 N.ar    1  UNL1       -0.1316
      4 C          62.7171   88.4359   11.8685 C.ar    1  UNL1        0.1615
      5 N          61.8201   87.8938   10.7954 N.ar    1  UNL1       -0.2940
      6 C          61.5391   86.4221   10.7254 C.3     1  UNL1        0.1302
      7 C          62.1551   85.4924   11.7286 C.3     1  UNL1        0.1186
      8 N          63.0520   86.0345   12.8017 N.am    1  UNL1       -0.2688
      9 C          63.6680   85.1049   13.8048 C.2     1  UNL1        0.2494
     10 O          64.5649   85.6470   14.8780 O.2     1  UNL1       -0.2699
     11 C          63.3330   87.5063   12.8716 C.3     1  UNL1        0.1343
     12 C          64.2300   88.0484   13.9447 C.3     1  UNL1        0.0298
     13 C          63.3870   83.6331   13.7349 C.ar    1  UNL1        0.0537
     14 C          62.2403   83.0509   14.5071 C.ar    1  UNL1        0.0068
     15 C          61.9593   81.5791   14.4371 C.ar    1  UNL1        0.0298
     16 C          62.8250   80.6895   13.5949 C.ar    1  UNL1        0.1401
     17 F          62.5440   79.2177   13.5249 F       1  UNL1       -0.2042
     18 C          63.9716   81.2717   12.8227 C.ar    1  UNL1        0.0298
     19 C          64.2526   82.7434   12.8927 C.ar    1  UNL1        0.0068
     20 C          58.6461   90.3031    5.5996 C.3     1  UNL1        0.0744
     21 C          59.1992   89.5361    6.7640 C.ar    1  UNL1        0.1481
     22 N          58.8839   88.1112    7.1110 N.ar    1  UNL1       -0.1929
     23 S          59.6546   87.7538    8.3473 S.2     1  UNL1        0.0369
     24 C          60.4462   88.9578    8.7642 C.ar    1  UNL1        0.1652
     25 N          60.1648   90.0593    7.7857 N.ar    1  UNL1       -0.2190
@<TRIPOS>BOND
     1    20    21    1
     2    21    22   ar
     3    22    23   ar
     4    23    24   ar
     5    24     1    1
     6     1     2   ar
     7     2     3   ar
     8     3     4   ar
     9     4     5   ar
    10     5     6    1
    11     6     7    1
    12     7     8    1
    13     8     9   am
    14     9    10    2
    15     9    13    1
    16    13    14   ar
    17    14    15   ar
    18    15    16   ar
    19    16    17    1
    20    16    18   ar
    21    18    19   ar
    22     8    11    1
    23    11    12    1
    24    24    25   ar
    25    25    21   ar
    26     5     1   ar
    27    19    13   ar
    28    11     4    1
@<TRIPOS>MOLECULE
*****
 25 28 0 0 0
SMALL
GASTEIGER

@<TRIPOS>ATOM
      1 C          62.4162   84.9106   11.9691 C.ar    1  UNL1        0.1917
      2 N          61.5869   84.9272   10.7194 N.ar    1  UNL1       -0.1268
      3 N          61.5159   86.3430   10.2290 N.ar    1  UNL1       -0.1316
      4 C          62.3013   87.2014   11.1757 C.ar    1  UNL1        0.1615
      5 N          62.8578   86.3161   12.2512 N.ar    1  UNL1       -0.2940
      6 C          63.6946   86.9042   13.3483 C.3     1  UNL1        0.1302
      7 C          63.9751   88.3776   13.3700 C.3     1  UNL1        0.1186
      8 N          63.4186   89.2629   12.2946 N.am    1  UNL1       -0.2688
      9 C          63.6990   90.7363   12.3162 C.2     1  UNL1        0.2494
     10 O          63.1426   91.6215   11.2408 O.2     1  UNL1       -0.2699
     11 C          62.5817   88.6747   11.1974 C.3     1  UNL1        0.1343
     12 C          62.0253   89.5600   10.1219 C.3     1  UNL1        0.0298
     13 C          64.5359   91.3243   13.4134 C.ar    1  UNL1        0.0537
     14 C          64.0933   91.2029   14.8415 C.ar    1  UNL1        0.0068
     15 C          64.9302   91.7911   15.9386 C.ar    1  UNL1        0.0298
     16 C          66.2097   92.5005   15.6077 C.ar    1  UNL1        0.1401
     17 F          67.0466   93.0887   16.7049 F       1  UNL1       -0.2042
     18 C          66.6523   92.6220   14.1797 C.ar    1  UNL1        0.0298
     19 C          65.8154   92.0339   13.0825 C.ar    1  UNL1        0.0068
     20 C          62.7285   79.9167   13.6555 C.3     1  UNL1        0.0744
     21 C          62.8896   81.4054   13.5675 C.ar    1  UNL1        0.1481
     22 N          63.6178   82.2730   14.5509 N.ar    1  UNL1       -0.1929
     23 S          63.5291   83.6918   14.0718 S.2     1  UNL1        0.0369
     24 C          62.7461   83.7008   12.7924 C.ar    1  UNL1        0.1652
     25 N          62.3509   82.2878   12.4807 N.ar    1  UNL1       -0.2190
@<TRIPOS>BOND
     1    20    21    1
     2    21    22   ar
     3    22    23   ar
     4    23    24   ar
     5    24     1    1
     6     1     2   ar
     7     2     3   ar
     8     3     4   ar
     9     4     5   ar
    10     5     6    1
    11     6     7    1
    12     7     8    1
    13     8     9   am
    14     9    10    2
    15     9    13    1
    16    13    14   ar
    17    14    15   ar
    18    15    16   ar
    19    16    17    1
    20    16    18   ar
    21    18    19   ar
    22     8    11    1
    23    11    12    1
    24    24    25   ar
    25    25    21   ar
    26     5     1   ar
    27    19    13   ar
    28    11     4    1
@<TRIPOS>MOLECULE
*****
 25 28 0 0 0
SMALL
GASTEIGER

@<TRIPOS>ATOM
      1 C          63.2338   83.0397   13.7140 C.ar    1  UNL1        0.1917
      2 N          62.8370   82.4081   15.0154 N.ar    1  UNL1       -0.1268
      3 N          62.7773   83.4875   16.0552 N.ar    1  UNL1       -0.1316
      4 C          63.1372   84.7862   15.3965 C.ar    1  UNL1        0.1615
      5 N          63.4193   84.5094   13.9495 N.ar    1  UNL1       -0.2940
      6 C          63.8086   85.6315   13.0334 C.3     1  UNL1        0.1302
      7 C          63.9159   87.0304   13.5642 C.3     1  UNL1        0.1186
      8 N          63.6338   87.3071   15.0112 N.am    1  UNL1       -0.2688
      9 C          63.7410   88.7059   15.5420 C.2     1  UNL1        0.2494
     10 O          63.4589   88.9826   16.9891 O.2     1  UNL1       -0.2699
     11 C          63.2444   86.1850   15.9274 C.3     1  UNL1        0.1343
     12 C          62.9623   86.4617   17.3744 C.3     1  UNL1        0.0298
     13 C          64.1303   89.8279   14.6259 C.ar    1  UNL1        0.0537
     14 C          63.2833   90.1481   13.4301 C.ar    1  UNL1        0.0068
     15 C          63.6727   91.2702   12.5139 C.ar    1  UNL1        0.0298
     16 C          64.9091   92.0721   12.7935 C.ar    1  UNL1        0.1401
     17 F          65.2985   93.1942   11.8774 F       1  UNL1       -0.2042
     18 C          65.7562   91.7519   13.9893 C.ar    1  UNL1        0.0298
     19 C          65.3668   90.6299   14.9055 C.ar    1  UNL1        0.0068
     20 C          62.8177   79.4795    9.8368 C.3     1  UNL1        0.0744
     21 C          63.2222   80.6903   10.6244 C.ar    1  UNL1        0.1481
     22 N          64.1578   81.7689   10.1647 N.ar    1  UNL1       -0.1929
     23 S          64.2760   82.7803   11.2662 S.2     1  UNL1        0.0369
     24 C          63.4135   82.3268   12.4065 C.ar    1  UNL1        0.1652
     25 N          62.7622   81.0351   12.0099 N.ar    1  UNL1       -0.2190
@<TRIPOS>BOND
     1    20    21    1
     2    21    22   ar
     3    22    23   ar
     4    23    24   ar
     5    24     1    1
     6     1     2   ar
     7     2     3   ar
     8     3     4   ar
     9     4     5   ar
    10     5     6    1
    11     6     7    1
    12     7     8    1
    13     8     9   am
    14     9    10    2
    15     9    13    1
    16    13    14   ar
    17    14    15   ar
    18    15    16   ar
    19    16    17    1
    20    16    18   ar
    21    18    19   ar
    22     8    11    1
    23    11    12    1
    24    24    25   ar
    25    25    21   ar
    26     5     1   ar
    27    19    13   ar
    28    11     4    1
@<TRIPOS>MOLECULE
*****
 25 28 0 0 0
SMALL
GASTEIGER

@<TRIPOS>ATOM
      1 C          63.3882   88.7584   13.1150 C.ar    1  UNL1        0.1917
      2 N          63.5047   88.5555   14.5967 N.ar    1  UNL1       -0.1268
      3 N          64.2540   89.7231   15.1669 N.ar    1  UNL1       -0.1316
      4 C          64.6006   90.6477   14.0377 C.ar    1  UNL1        0.1615
      5 N          64.0655   90.0515   12.7696 N.ar    1  UNL1       -0.2940
      6 C          64.2642   90.7630   11.4641 C.3     1  UNL1        0.1302
      7 C          64.9979   92.0708   11.4268 C.3     1  UNL1        0.1186
      8 N          65.5330   92.6670   12.6949 N.am    1  UNL1       -0.2688
      9 C          66.2667   93.9748   12.6576 C.2     1  UNL1        0.2494
     10 O          66.8018   94.5710   13.9258 O.2     1  UNL1       -0.2699
     11 C          65.3343   91.9554   14.0004 C.3     1  UNL1        0.1343
     12 C          65.8694   92.5517   15.2686 C.3     1  UNL1        0.0298
     13 C          66.4653   94.6863   11.3522 C.ar    1  UNL1        0.0537
     14 C          67.0265   93.9478   10.1733 C.ar    1  UNL1        0.0068
     15 C          67.2251   94.6594    8.8678 C.ar    1  UNL1        0.0298
     16 C          66.8626   96.1094    8.7412 C.ar    1  UNL1        0.1401
     17 F          67.0612   96.8210    7.4357 F       1  UNL1       -0.2042
     18 C          66.3015   96.8479    9.9201 C.ar    1  UNL1        0.0298
     19 C          66.1028   96.1364   11.2256 C.ar    1  UNL1        0.0068
     20 C          61.9169   84.3888   10.5418 C.3     1  UNL1        0.0744
     21 C          62.0367   85.8226   10.9657 C.ar    1  UNL1        0.1481
     22 N          61.3112   86.9857   10.3566 N.ar    1  UNL1       -0.1929
     23 S          61.7292   88.2270   11.0877 S.2     1  UNL1        0.0369
     24 C          62.7130   87.8311   12.1485 C.ar    1  UNL1        0.1652
     25 N          62.9031   86.3451   12.0732 N.ar    1  UNL1       -0.2190
@<TRIPOS>BOND
     1    20    21    1
     2    21    22   ar
     3    22    23   ar
     4    23    24   ar
     5    24     1    1
     6     1     2   ar
     7     2     3   ar
     8     3     4   ar
     9     4     5   ar
    10     5     6    1
    11     6     7    1
    12     7     8    1
    13     8     9   am
    14     9    10    2
    15     9    13    1
    16    13    14   ar
    17    14    15   ar
    18    15    16   ar
    19    16    17    1
    20    16    18   ar
    21    18    19   ar
    22     8    11    1
    23    11    12    1
    24    24    25   ar
    25    25    21   ar
    26     5     1   ar
    27    19    13   ar
    28    11     4    1
@<TRIPOS>MOLECULE
*****
 25 28 0 0 0
SMALL
GASTEIGER

@<TRIPOS>ATOM
      1 C          56.5567   93.7268   -3.2361 C.ar    1  UNL1        0.1917
      2 N          56.0313   95.1235   -3.3883 N.ar    1  UNL1       -0.1268
      3 N          56.7372   95.9953   -2.3926 N.ar    1  UNL1       -0.1316
      4 C          57.6989   95.1375   -1.6250 C.ar    1  UNL1        0.1615
      5 N          57.5873   93.7354   -2.1463 N.ar    1  UNL1       -0.2940
      6 C          58.4386   92.6478   -1.5613 C.3     1  UNL1        0.1302
      7 C          59.4016   92.9621   -0.4549 C.3     1  UNL1        0.1186
      8 N          59.5132   94.3642    0.0664 N.am    1  UNL1       -0.2688
      9 C          60.4761   94.6786    1.1727 C.2     1  UNL1        0.2494
     10 O          60.5877   96.0806    1.6940 O.2     1  UNL1       -0.2699
     11 C          58.6618   95.4519   -0.5187 C.3     1  UNL1        0.1343
     12 C          58.7734   96.8539    0.0026 C.3     1  UNL1        0.0298
     13 C          61.3273   93.5909    1.7577 C.ar    1  UNL1        0.0537
     14 C          60.7915   92.7329    2.8652 C.ar    1  UNL1        0.0068
     15 C          61.6429   91.6452    3.4502 C.ar    1  UNL1        0.0298
     16 C          63.0300   91.4155    2.9276 C.ar    1  UNL1        0.1401
     17 F          63.8814   90.3278    3.5126 F       1  UNL1       -0.2042
     18 C          63.5658   92.2735    1.8201 C.ar    1  UNL1        0.0298
     19 C          62.7145   93.3612    1.2351 C.ar    1  UNL1        0.0068
     20 C          55.0379   90.6487   -7.2485 C.3     1  UNL1        0.0744
     21 C          55.4288   91.1165   -5.8780 C.ar    1  UNL1        0.1481
     22 N          55.5022   90.2668   -4.6440 N.ar    1  UNL1       -0.1929
     23 S          55.9337   91.1412   -3.5041 S.2     1  UNL1        0.0369
     24 C          56.1269   92.5313   -4.0336 C.ar    1  UNL1        0.1652
     25 N          55.8148   92.5160   -5.5008 N.ar    1  UNL1       -0.2190
@<TRIPOS>BOND
     1    20    21    1
     2    21    22   ar
     3    22    23   ar
     4    23    24   ar
     5    24     1    1
     6     1     2   ar
     7     2     3   ar
     8     3     4   ar
     9     4     5   ar
    10     5     6    1
    11     6     7    1
    12     7     8    1
    13     8     9   am
    14     9    10    2
    15     9    13    1
    16    13    14   ar
    17    14    15   ar
    18    15    16   ar
    19    16    17    1
    20    16    18   ar
    21    18    19   ar
    22     8    11    1
    23    11    12    1
    24    24    25   ar
    25    25    21   ar
    26     5     1   ar
    27    19    13   ar
    28    11     4    1
