@<TRIPOS>MOLECULE
*****
 39 43 0 0 0
SMALL
GASTEIGER

@<TRIPOS>ATOM
      1 N          63.9195   89.3559   14.6004 N.3     1  UNL1       -0.2688
      2 C          63.5128   89.1002   13.1795 C.3     1  UNL1        0.0741
      3 C          63.4789   87.6971   12.6500 C.3     1  UNL1        0.0369
      4 C          63.8519   86.5499   13.5414 C.3     1  UNL1        0.0743
      5 C          64.2587   86.8057   14.9624 C.3     1  UNL1        0.0369
      6 C          64.2925   88.2087   15.4919 C.3     1  UNL1        0.0741
      7 N          63.8181   85.1469   13.0119 N.am    1  UNL1       -0.3056
      8 C          62.6878   84.2328   13.3817 C.2     1  UNL1        0.2253
      9 O          61.5913   84.7216   14.2810 O.2     1  UNL1       -0.2748
     10 H          64.5378   84.8260   12.4217 H       1  UNL1        0.1494
     11 C          62.6540   82.8297   12.8522 C.3     1  UNL1        0.0875
     12 C          62.5420   82.5559   14.3227 C.3     1  UNL1        0.0127
     13 C          62.4391   81.1434   14.8170 C.3     1  UNL1        0.0008
     14 C          62.4482   80.0047   13.8406 C.3     1  UNL1        0.0000
     15 C          62.5603   80.2784   12.3701 C.3     1  UNL1        0.0008
     16 C          62.6632   81.6909   11.8759 C.3     1  UNL1        0.0127
     17 C          62.7778   83.5907   11.5656 C.ar    1  UNL1       -0.0146
     18 C          61.8436   84.7273   11.2736 C.ar    1  UNL1       -0.0030
     19 C          61.9674   85.4884    9.9869 C.ar    1  UNL1        0.0111
     20 C          63.0254   85.1128    8.9923 C.ar    1  UNL1        0.0577
     21 CL         63.1492   85.8739    7.7056 Cl      1  UNL1       -0.0822
     22 C          63.9597   83.9762    9.2842 C.ar    1  UNL1        0.0111
     23 C          63.8359   83.2151   10.5709 C.ar    1  UNL1       -0.0030
     24 C          63.9533   90.7589   15.1299 C.3     1  UNL1        0.0992
     25 C          66.8523   92.6845   13.2224 C.ar    1  UNL1        0.1452
     26 C          67.5412   93.3658   14.3675 C.ar    1  UNL1        0.0375
     27 C          67.0342   93.1781   15.7667 C.ar    1  UNL1        0.0029
     28 C          65.8383   92.3092   16.0208 C.ar    1  UNL1       -0.0027
     29 C          65.1493   91.6279   14.8758 C.ar    1  UNL1       -0.0031
     30 C          65.6563   91.8155   13.4765 C.ar    1  UNL1        0.0346
     31 O          67.3592   92.8722   11.8233 O.3     1  UNL1       -0.4504
     32 C          67.7754   94.4874    9.8313 C.ar    1  UNL1        0.1730
     33 C          67.4069   95.7194    9.0590 C.ar    1  UNL1        0.0401
     34 C          66.2538   96.5681    9.5064 C.ar    1  UNL1        0.0033
     35 C          65.4692   96.1849   10.7260 C.ar    1  UNL1        0.0033
     36 C          65.8377   94.9529   11.4983 C.ar    1  UNL1        0.0406
     37 C          66.9908   94.1042   11.0509 C.ar    1  UNL1        0.1789
     38 C          68.6888   92.2332    8.9179 C.3     1  UNL1        0.2526
     39 O          68.9284   93.6387    9.3839 O.3     1  UNL1       -0.4684
@<TRIPOS>BOND
     1    38    39    1
     2    39    32    1
     3    32    33   ar
     4    33    34   ar
     5    34    35   ar
     6    35    36   ar
     7    36    37   ar
     8    37    31    1
     9    31    25    1
    10    25    26   ar
    11    26    27   ar
    12    27    28   ar
    13    28    29   ar
    14    29    24    1
    15    24     1    1
    16     1     2    1
    17     2     3    1
    18     3     4    1
    19     4     7    1
    20     7     8   am
    21     8     9    2
    22     8    11    1
    23    11    17    1
    24    17    18   ar
    25    18    19   ar
    26    19    20   ar
    27    20    21    1
    28    20    22   ar
    29    22    23   ar
    30    11    12    1
    31    12    13    1
    32    13    14    1
    33    14    15    1
    34    15    16    1
    35     4     5    1
    36     5     6    1
    37    29    30   ar
    38    37    32   ar
    39    30    25   ar
    40     6     1    1
    41    16    11    1
    42    23    17   ar
    43     7    10    1
@<TRIPOS>MOLECULE
*****
 39 43 0 0 0
SMALL
GASTEIGER

@<TRIPOS>ATOM
      1 N          64.2411   89.9052   14.6112 N.3     1  UNL1       -0.2688
      2 C          64.4252   88.4432   14.3305 C.3     1  UNL1        0.0741
      3 C          63.5534   87.7578   13.3204 C.3     1  UNL1        0.0369
      4 C          62.4974   88.5344   12.5911 C.3     1  UNL1        0.0743
      5 C          62.3133   89.9964   12.8719 C.3     1  UNL1        0.0369
      6 C          63.1851   90.6817   13.8819 C.3     1  UNL1        0.0741
      7 N          61.6256   87.8491   11.5811 N.am    1  UNL1       -0.3056
      8 C          61.9507   87.9474   10.1201 C.2     1  UNL1        0.2253
      9 O          63.1476   88.7310    9.6691 O.2     1  UNL1       -0.2748
     10 H          60.8401   87.3348   11.8771 H       1  UNL1        0.1494
     11 C          61.0789   87.2620    9.1099 C.3     1  UNL1        0.0875
     12 C          60.5576   88.6638    8.9955 C.3     1  UNL1        0.0127
     13 C          59.4507   88.9761    8.0326 C.3     1  UNL1        0.0008
     14 C          58.8651   87.8866    7.1841 C.3     1  UNL1        0.0000
     15 C          59.3864   86.4848    7.2985 C.3     1  UNL1        0.0008
     16 C          60.4933   86.1724    8.2614 C.3     1  UNL1        0.0127
     17 C          61.9030   86.0982    9.5752 C.ar    1  UNL1       -0.0146
     18 C          61.7165   85.5531   10.9600 C.ar    1  UNL1       -0.0030
     19 C          62.5406   84.3892   11.4253 C.ar    1  UNL1        0.0111
     20 C          63.5512   83.7705   10.5055 C.ar    1  UNL1        0.0577
     21 CL         64.3752   82.6067   10.9708 Cl      1  UNL1       -0.0822
     22 C          63.7377   84.3157    9.1206 C.ar    1  UNL1        0.0111
     23 C          62.9136   85.4795    8.6554 C.ar    1  UNL1       -0.0030
     24 C          65.1129   90.5905   15.6213 C.3     1  UNL1        0.0992
     25 C          66.4505   93.6828   13.5239 C.ar    1  UNL1        0.1452
     26 C          67.5301   94.1946   14.4308 C.ar    1  UNL1        0.0375
     27 C          67.8040   93.5051   15.7345 C.ar    1  UNL1        0.0029
     28 C          66.9982   92.3037   16.1313 C.ar    1  UNL1       -0.0027
     29 C          65.9186   91.7919   15.2245 C.ar    1  UNL1       -0.0031
     30 C          65.6447   92.4814   13.9207 C.ar    1  UNL1        0.0346
     31 O          66.1766   94.3723   12.2203 O.3     1  UNL1       -0.4504
     32 C          67.1204   94.9223    9.8630 C.ar    1  UNL1        0.1730
     33 C          67.8447   94.4938    8.6213 C.ar    1  UNL1        0.0401
     34 C          68.3495   93.0869    8.4952 C.ar    1  UNL1        0.0033
     35 C          68.1300   92.1085    9.6107 C.ar    1  UNL1        0.0033
     36 C          67.4057   92.5370   10.8524 C.ar    1  UNL1        0.0406
     37 C          66.9009   93.9438   10.9785 C.ar    1  UNL1        0.1789
     38 C          65.1583   96.6237    9.7909 C.3     1  UNL1        0.2526
     39 O          66.6156   96.3291    9.9891 O.3     1  UNL1       -0.4684
@<TRIPOS>BOND
     1    38    39    1
     2    39    32    1
     3    32    33   ar
     4    33    34   ar
     5    34    35   ar
     6    35    36   ar
     7    36    37   ar
     8    37    31    1
     9    31    25    1
    10    25    26   ar
    11    26    27   ar
    12    27    28   ar
    13    28    29   ar
    14    29    24    1
    15    24     1    1
    16     1     2    1
    17     2     3    1
    18     3     4    1
    19     4     7    1
    20     7     8   am
    21     8     9    2
    22     8    11    1
    23    11    17    1
    24    17    18   ar
    25    18    19   ar
    26    19    20   ar
    27    20    21    1
    28    20    22   ar
    29    22    23   ar
    30    11    12    1
    31    12    13    1
    32    13    14    1
    33    14    15    1
    34    15    16    1
    35     4     5    1
    36     5     6    1
    37    29    30   ar
    38    37    32   ar
    39    30    25   ar
    40     6     1    1
    41    16    11    1
    42    23    17   ar
    43     7    10    1
@<TRIPOS>MOLECULE
*****
 39 43 0 0 0
SMALL
GASTEIGER

@<TRIPOS>ATOM
      1 N          59.2202   90.1490    5.9199 N.3     1  UNL1       -0.2688
      2 C          60.6803   90.2290    5.5857 C.3     1  UNL1        0.0741
      3 C          61.1692   91.2480    4.5995 C.3     1  UNL1        0.0369
      4 C          60.1980   92.1870    3.9475 C.3     1  UNL1        0.0743
      5 C          58.7379   92.1070    4.2818 C.3     1  UNL1        0.0369
      6 C          58.2490   91.0880    5.2680 C.3     1  UNL1        0.0741
      7 N          60.6869   93.2061    2.9614 N.am    1  UNL1       -0.3056
      8 C          61.8930   92.9154    2.1183 C.2     1  UNL1        0.2253
      9 O          62.6102   91.6058    2.2614 O.2     1  UNL1       -0.2748
     10 H          60.2162   94.0656    2.8674 H       1  UNL1        0.1494
     11 C          62.3819   93.9345    1.1320 C.3     1  UNL1        0.0875
     12 C          63.5663   93.8715    2.0503 C.3     1  UNL1        0.0127
     13 C          64.7693   94.7265    1.7824 C.3     1  UNL1        0.0008
     14 C          64.7879   95.6445    0.5962 C.3     1  UNL1        0.0000
     15 C          63.6035   95.7074   -0.3220 C.3     1  UNL1        0.0008
     16 C          62.4005   94.8524   -0.0542 C.3     1  UNL1        0.0127
     17 C          61.0277   93.6435    0.5563 C.ar    1  UNL1       -0.0146
     18 C          60.7317   92.2895   -0.0173 C.ar    1  UNL1       -0.0030
     19 C          59.3775   91.9986   -0.5931 C.ar    1  UNL1        0.0111
     20 C          58.3193   93.0617   -0.5952 C.ar    1  UNL1        0.0577
     21 CL         56.9651   92.7707   -1.1710 Cl      1  UNL1       -0.0822
     22 C          58.6153   94.4157   -0.0217 C.ar    1  UNL1        0.0111
     23 C          59.9695   94.7066    0.5541 C.ar    1  UNL1       -0.0030
     24 C          58.7313   89.1300    6.9061 C.3     1  UNL1        0.0992
     25 C          60.8869   88.8816   10.2290 C.ar    1  UNL1        0.1452
     26 C          61.5174   87.5313   10.0576 C.ar    1  UNL1        0.0375
     27 C          61.2192   86.7140    8.8357 C.ar    1  UNL1        0.0029
     28 C          60.2905   87.2469    7.7852 C.ar    1  UNL1       -0.0027
     29 C          59.6600   88.5971    7.9566 C.ar    1  UNL1       -0.0031
     30 C          59.9582   89.4145    9.1785 C.ar    1  UNL1        0.0346
     31 O          61.1851   89.6989   11.4509 O.3     1  UNL1       -0.4504
     32 C          63.2138   90.5358   12.8417 C.ar    1  UNL1        0.1730
     33 C          64.4963   91.3082   12.9326 C.ar    1  UNL1        0.0401
     34 C          65.0329   92.0160   11.7239 C.ar    1  UNL1        0.0033
     35 C          64.2870   91.9515   10.4242 C.ar    1  UNL1        0.0033
     36 C          63.0044   91.1791   10.3332 C.ar    1  UNL1        0.0406
     37 C          62.4678   90.4713   11.5420 C.ar    1  UNL1        0.1789
     38 C          63.4588   89.8321   15.3306 C.3     1  UNL1        0.2526
     39 O          62.6772   89.8280   14.0504 O.3     1  UNL1       -0.4684
@<TRIPOS>BOND
     1    38    39    1
     2    39    32    1
     3    32    33   ar
     4    33    34   ar
     5    34    35   ar
     6    35    36   ar
     7    36    37   ar
     8    37    31    1
     9    31    25    1
    10    25    26   ar
    11    26    27   ar
    12    27    28   ar
    13    28    29   ar
    14    29    24    1
    15    24     1    1
    16     1     2    1
    17     2     3    1
    18     3     4    1
    19     4     7    1
    20     7     8   am
    21     8     9    2
    22     8    11    1
    23    11    17    1
    24    17    18   ar
    25    18    19   ar
    26    19    20   ar
    27    20    21    1
    28    20    22   ar
    29    22    23   ar
    30    11    12    1
    31    12    13    1
    32    13    14    1
    33    14    15    1
    34    15    16    1
    35     4     5    1
    36     5     6    1
    37    29    30   ar
    38    37    32   ar
    39    30    25   ar
    40     6     1    1
    41    16    11    1
    42    23    17   ar
    43     7    10    1
@<TRIPOS>MOLECULE
*****
 39 43 0 0 0
SMALL
GASTEIGER

@<TRIPOS>ATOM
      1 N          61.5206   89.6189   10.4976 N.3     1  UNL1       -0.2688
      2 C          62.4126   90.4632    9.6365 C.3     1  UNL1        0.0741
      3 C          63.4472   91.3468   10.2681 C.3     1  UNL1        0.0369
      4 C          63.5898   91.3861   11.7608 C.3     1  UNL1        0.0743
      5 C          62.6977   90.5418   12.6219 C.3     1  UNL1        0.0369
      6 C          61.6632   89.6582   11.9902 C.3     1  UNL1        0.0741
      7 N          64.6244   92.2697   12.3924 N.am    1  UNL1       -0.3056
      8 C          65.5778   91.7041   13.4028 C.2     1  UNL1        0.2253
      9 O          65.4967   90.2550   13.7817 O.2     1  UNL1       -0.2748
     10 H          64.6776   93.2208   12.1437 H       1  UNL1        0.1494
     11 C          66.6124   92.5877   14.0345 C.3     1  UNL1        0.0875
     12 C          66.1105   91.8649   15.2492 C.3     1  UNL1        0.0127
     13 C          66.6926   92.1701   16.5975 C.3     1  UNL1        0.0008
     14 C          67.7768   93.1981   16.7310 C.3     1  UNL1        0.0000
     15 C          68.2788   93.9209   15.5163 C.3     1  UNL1        0.0008
     16 C          67.6966   93.6157   14.1680 C.3     1  UNL1        0.0127
     17 C          66.7551   93.0037   12.6003 C.ar    1  UNL1       -0.0146
     18 C          67.3953   92.0762   11.6106 C.ar    1  UNL1       -0.0030
     19 C          67.5380   92.4921   10.1764 C.ar    1  UNL1        0.0111
     20 C          67.0403   93.8356    9.7322 C.ar    1  UNL1        0.0577
     21 CL         67.1830   94.2515    8.2981 Cl      1  UNL1       -0.0822
     22 C          66.4001   94.7631   10.7220 C.ar    1  UNL1        0.0111
     23 C          66.2574   94.3471   12.1561 C.ar    1  UNL1       -0.0030
     24 C          60.4861   88.7354    9.8660 C.3     1  UNL1        0.0992
     25 C          62.4489   85.3691    9.1137 C.ar    1  UNL1        0.1452
     26 C          61.7174   84.8799    7.8989 C.ar    1  UNL1        0.0375
     27 C          60.5755   85.6759    7.3398 C.ar    1  UNL1        0.0029
     28 C          60.1651   86.9610    7.9955 C.ar    1  UNL1       -0.0027
     29 C          60.8965   87.4502    9.2103 C.ar    1  UNL1       -0.0031
     30 C          62.0384   86.6543    9.7694 C.ar    1  UNL1        0.0346
     31 O          63.5907   84.5732    9.6728 O.3     1  UNL1       -0.4504
     32 C          63.1262   83.9024   12.1394 C.ar    1  UNL1        0.1730
     33 C          62.8689   82.8449   13.1716 C.ar    1  UNL1        0.0401
     34 C          62.8189   81.4007   12.7694 C.ar    1  UNL1        0.0033
     35 C          63.0262   81.0140   11.3351 C.ar    1  UNL1        0.0033
     36 C          63.2835   82.0715   10.3029 C.ar    1  UNL1        0.0406
     37 C          63.3335   83.5157   10.7051 C.ar    1  UNL1        0.1789
     38 C          63.8664   85.7481   13.8114 C.3     1  UNL1        0.2526
     39 O          63.1762   85.3466   12.5416 O.3     1  UNL1       -0.4684
@<TRIPOS>BOND
     1    38    39    1
     2    39    32    1
     3    32    33   ar
     4    33    34   ar
     5    34    35   ar
     6    35    36   ar
     7    36    37   ar
     8    37    31    1
     9    31    25    1
    10    25    26   ar
    11    26    27   ar
    12    27    28   ar
    13    28    29   ar
    14    29    24    1
    15    24     1    1
    16     1     2    1
    17     2     3    1
    18     3     4    1
    19     4     7    1
    20     7     8   am
    21     8     9    2
    22     8    11    1
    23    11    17    1
    24    17    18   ar
    25    18    19   ar
    26    19    20   ar
    27    20    21    1
    28    20    22   ar
    29    22    23   ar
    30    11    12    1
    31    12    13    1
    32    13    14    1
    33    14    15    1
    34    15    16    1
    35     4     5    1
    36     5     6    1
    37    29    30   ar
    38    37    32   ar
    39    30    25   ar
    40     6     1    1
    41    16    11    1
    42    23    17   ar
    43     7    10    1
@<TRIPOS>MOLECULE
*****
 39 43 0 0 0
SMALL
GASTEIGER

@<TRIPOS>ATOM
      1 N          61.4034   89.8521   10.4283 N.3     1  UNL1       -0.2688
      2 C          62.3264   90.6632    9.5682 C.3     1  UNL1        0.0741
      3 C          63.4102   91.4863   10.1993 C.3     1  UNL1        0.0369
      4 C          63.5707   91.4981   11.6907 C.3     1  UNL1        0.0743
      5 C          62.6476   90.6868   12.5508 C.3     1  UNL1        0.0369
      6 C          61.5639   89.8639   11.9196 C.3     1  UNL1        0.0741
      7 N          64.6543   92.3210   12.3219 N.am    1  UNL1       -0.3056
      8 C          65.5125   91.7302   13.4010 C.2     1  UNL1        0.2253
      9 O          65.2871   90.3165   13.8489 O.2     1  UNL1       -0.2748
     10 H          64.8023   93.2489   12.0279 H       1  UNL1        0.1494
     11 C          66.5962   92.5532   14.0322 C.3     1  UNL1        0.0875
     12 C          66.0626   91.8507   15.2453 C.3     1  UNL1        0.0127
     13 C          66.6672   92.1159   16.5922 C.3     1  UNL1        0.0008
     14 C          67.8055   93.0835   16.7259 C.3     1  UNL1        0.0000
     15 C          68.3392   93.7860   15.5129 C.3     1  UNL1        0.0008
     16 C          67.7346   93.5209   14.1660 C.3     1  UNL1        0.0127
     17 C          66.7535   92.9699   12.5998 C.ar    1  UNL1       -0.0146
     18 C          66.2505   94.3091   12.1488 C.ar    1  UNL1       -0.0030
     19 C          66.4078   94.7258   10.7164 C.ar    1  UNL1        0.0111
     20 C          67.0682   93.8033    9.7351 C.ar    1  UNL1        0.0577
     21 CL         67.2255   94.2200    8.3028 Cl      1  UNL1       -0.0822
     22 C          67.5713   92.4641   10.1862 C.ar    1  UNL1        0.0111
     23 C          67.4139   92.0474   11.6186 C.ar    1  UNL1       -0.0030
     24 C          60.3197   89.0291    9.7971 C.3     1  UNL1        0.0992
     25 C          62.0868   85.5377    9.1358 C.ar    1  UNL1        0.1452
     26 C          61.3052   85.0436    7.9547 C.ar    1  UNL1        0.0375
     27 C          60.1951   85.8780    7.3878 C.ar    1  UNL1        0.0029
     28 C          59.8666   87.2065    8.0019 C.ar    1  UNL1       -0.0027
     29 C          60.6482   87.7006    9.1830 C.ar    1  UNL1       -0.0031
     30 C          61.7584   86.8662    9.7500 C.ar    1  UNL1        0.0346
     31 O          63.1969   84.7033    9.7027 O.3     1  UNL1       -0.4504
     32 C          63.2673   82.6816   11.3331 C.ar    1  UNL1        0.1730
     33 C          63.1557   82.1294   12.7232 C.ar    1  UNL1        0.0401
     34 C          62.8620   83.0466   13.8732 C.ar    1  UNL1        0.0033
     35 C          62.6799   84.5159   13.6331 C.ar    1  UNL1        0.0033
     36 C          62.7915   85.0681   12.2429 C.ar    1  UNL1        0.0406
     37 C          63.0853   84.1510   11.0929 C.ar    1  UNL1        0.1789
     38 C          63.0693   80.3476   10.2092 C.3     1  UNL1        0.2526
     39 O          63.5611   81.7644   10.1831 O.3     1  UNL1       -0.4684
@<TRIPOS>BOND
     1    38    39    1
     2    39    32    1
     3    32    33   ar
     4    33    34   ar
     5    34    35   ar
     6    35    36   ar
     7    36    37   ar
     8    37    31    1
     9    31    25    1
    10    25    26   ar
    11    26    27   ar
    12    27    28   ar
    13    28    29   ar
    14    29    24    1
    15    24     1    1
    16     1     2    1
    17     2     3    1
    18     3     4    1
    19     4     7    1
    20     7     8   am
    21     8     9    2
    22     8    11    1
    23    11    17    1
    24    17    18   ar
    25    18    19   ar
    26    19    20   ar
    27    20    21    1
    28    20    22   ar
    29    22    23   ar
    30    11    12    1
    31    12    13    1
    32    13    14    1
    33    14    15    1
    34    15    16    1
    35     4     5    1
    36     5     6    1
    37    29    30   ar
    38    37    32   ar
    39    30    25   ar
    40     6     1    1
    41    16    11    1
    42    23    17   ar
    43     7    10    1
@<TRIPOS>MOLECULE
*****
 39 43 0 0 0
SMALL
GASTEIGER

@<TRIPOS>ATOM
      1 N          59.8912   88.3873    7.6658 N.3     1  UNL1       -0.2688
      2 C          60.2665   89.4219    8.6849 C.3     1  UNL1        0.0741
      3 C          61.2024   89.0687    9.8027 C.3     1  UNL1        0.0369
      4 C          61.7630   87.6809    9.9013 C.3     1  UNL1        0.0743
      5 C          61.3876   86.6462    8.8821 C.3     1  UNL1        0.0369
      6 C          60.4517   86.9995    7.7644 C.3     1  UNL1        0.0741
      7 N          62.6988   87.3276   11.0190 N.am    1  UNL1       -0.3056
      8 C          62.5709   86.0048   11.7145 C.2     1  UNL1        0.2253
      9 O          61.5071   85.0353   11.2923 O.2     1  UNL1       -0.2748
     10 H          63.3970   87.9640   11.2961 H       1  UNL1        0.1494
     11 C          63.5068   85.6515   12.8323 C.3     1  UNL1        0.0875
     12 C          63.3046   87.1110   13.1134 C.3     1  UNL1        0.0127
     13 C          63.9955   87.7529   14.2798 C.3     1  UNL1        0.0008
     14 C          64.8888   86.9353   15.1651 C.3     1  UNL1        0.0000
     15 C          65.0910   85.4759   14.8840 C.3     1  UNL1        0.0008
     16 C          64.4000   84.8340   13.7176 C.3     1  UNL1        0.0127
     17 C          63.3840   84.3147   12.1630 C.ar    1  UNL1       -0.0146
     18 C          63.9926   84.0948   10.8098 C.ar    1  UNL1       -0.0030
     19 C          63.8698   82.7580   10.1405 C.ar    1  UNL1        0.0111
     20 C          63.1384   81.6412   10.8244 C.ar    1  UNL1        0.0577
     21 CL         63.0157   80.3044   10.1551 Cl      1  UNL1       -0.0822
     22 C          62.5298   81.8611   12.1776 C.ar    1  UNL1        0.0111
     23 C          62.6526   83.1979   12.8469 C.ar    1  UNL1       -0.0030
     24 C          58.9553   88.7405    6.5481 C.3     1  UNL1        0.0992
     25 C          60.6584   91.5895    4.3726 C.ar    1  UNL1        0.1452
     26 C          59.5301   92.5713    4.2579 C.ar    1  UNL1        0.0375
     27 C          58.2102   92.2761    4.9066 C.ar    1  UNL1        0.0029
     28 C          58.0187   90.9992    5.6700 C.ar    1  UNL1       -0.0027
     29 C          59.1469   90.0175    5.7847 C.ar    1  UNL1       -0.0031
     30 C          60.4668   90.3126    5.1360 C.ar    1  UNL1        0.0346
     31 O          61.9783   91.8847    3.7239 O.3     1  UNL1       -0.4504
     32 C          63.0742   93.3300    1.8637 C.ar    1  UNL1        0.1730
     33 C          63.1221   93.7940    0.4381 C.ar    1  UNL1        0.0401
     34 C          62.1220   93.2767   -0.5530 C.ar    1  UNL1        0.0033
     35 C          61.0740   92.2954   -0.1185 C.ar    1  UNL1        0.0033
     36 C          61.0261   91.8314    1.3071 C.ar    1  UNL1        0.0406
     37 C          62.0262   92.3487    2.2982 C.ar    1  UNL1        0.1789
     38 C          64.8745   95.0765    2.5408 C.3     1  UNL1        0.2526
     39 O          64.0742   93.8473    2.8548 O.3     1  UNL1       -0.4684
@<TRIPOS>BOND
     1    38    39    1
     2    39    32    1
     3    32    33   ar
     4    33    34   ar
     5    34    35   ar
     6    35    36   ar
     7    36    37   ar
     8    37    31    1
     9    31    25    1
    10    25    26   ar
    11    26    27   ar
    12    27    28   ar
    13    28    29   ar
    14    29    24    1
    15    24     1    1
    16     1     2    1
    17     2     3    1
    18     3     4    1
    19     4     7    1
    20     7     8   am
    21     8     9    2
    22     8    11    1
    23    11    17    1
    24    17    18   ar
    25    18    19   ar
    26    19    20   ar
    27    20    21    1
    28    20    22   ar
    29    22    23   ar
    30    11    12    1
    31    12    13    1
    32    13    14    1
    33    14    15    1
    34    15    16    1
    35     4     5    1
    36     5     6    1
    37    29    30   ar
    38    37    32   ar
    39    30    25   ar
    40     6     1    1
    41    16    11    1
    42    23    17   ar
    43     7    10    1
