@<TRIPOS>MOLECULE
*****
 37 40 0 0 0
SMALL
GASTEIGER

@<TRIPOS>ATOM
      1 C          61.0695   92.7573    2.3861 C.ar    1  UNL1       -0.0224
      2 C          62.5488   92.6578    2.1586 C.ar    1  UNL1       -0.0041
      3 C          63.1825   93.3916    1.0141 C.ar    1  UNL1        0.0042
      4 C          62.3371   94.2249    0.0972 C.ar    1  UNL1        0.0537
      5 C          60.8578   94.3244    0.3248 C.ar    1  UNL1        0.0042
      6 C          60.2240   93.5906    1.4692 C.ar    1  UNL1       -0.0041
      7 N          59.1680   90.5558    5.8195 N.3     1  UNL1       -0.2689
      8 C          60.6347   90.3981    5.5476 C.3     1  UNL1        0.0727
      9 C          61.2685   91.1319    4.4032 C.3     1  UNL1        0.0217
     10 C          60.4356   92.0235    3.5306 C.3     1  UNL1        0.0251
     11 C          58.9690   92.1812    3.8025 C.3     1  UNL1        0.0217
     12 C          58.3351   91.4474    4.9470 C.3     1  UNL1        0.0727
     13 C          58.5342   89.8220    6.9640 C.3     1  UNL1        0.0991
     14 C          60.9615   86.9129    9.3919 C.ar    1  UNL1        0.0536
     15 C          61.0677   88.3850    9.6596 C.ar    1  UNL1        0.0042
     16 C          60.2586   89.3547    8.8502 C.ar    1  UNL1       -0.0028
     17 C          59.3433   88.8523    7.7733 C.ar    1  UNL1       -0.0061
     18 C          59.2371   87.3802    7.5057 C.ar    1  UNL1       -0.0028
     19 C          60.0462   86.4105    8.3150 C.ar    1  UNL1        0.0042
     20 C          63.5895   84.0930   10.3361 C.3     1  UNL1        0.1152
     21 N          62.7804   85.0627    9.5268 N.am    1  UNL1       -0.2726
     22 C          62.9812   85.1519    8.0429 C.3     1  UNL1        0.1152
     23 C          61.7706   85.9432   10.2013 C.2     1  UNL1        0.2491
     24 O          61.5699   85.8539   11.6851 O.2     1  UNL1       -0.2699
     25 C          62.9709   94.9587   -1.0473 C.2     1  UNL1        0.2495
     26 O          62.6076   96.3894   -1.3142 O.2     1  UNL1       -0.2698
     27 N          63.9681   94.2619   -1.9248 N.am    1  UNL1       -0.2794
     28 H          64.2066   93.3229   -1.7496 H       1  UNL1        0.1552
     29 C          64.6019   94.9957   -3.0692 C.ar    1  UNL1        0.0636
     30 C          64.2732   94.6106   -4.4812 C.ar    1  UNL1        0.0159
     31 C          64.9070   95.3445   -5.6256 C.ar    1  UNL1        0.0014
     32 C          65.8695   96.4634   -5.3581 C.ar    1  UNL1        0.0013
     33 C          66.1982   96.8485   -3.9462 C.ar    1  UNL1        0.0153
     34 C          65.5644   96.1147   -2.8017 C.ar    1  UNL1        0.0552
     35 N          65.8931   96.4998   -1.3897 N.pl3   1  UNL1       -0.3560
     36 H          66.5248   97.2342   -1.2142 H       1  UNL1        0.1424
     37 H          65.4771   96.0182   -0.6386 H       1  UNL1        0.1424
@<TRIPOS>BOND
     1    20    21    1
     2    21    22    1
     3    21    23   am
     4    23    24    2
     5    23    14    1
     6    14    15   ar
     7    15    16   ar
     8    16    17   ar
     9    17    13    1
    10    13     7    1
    11     7     8    1
    12     8     9    1
    13     9    10    1
    14    10     1    1
    15     1     2   ar
    16     2     3   ar
    17     3     4   ar
    18     4    25    1
    19    25    26    2
    20    25    27   am
    21    27    29    1
    22    29    30   ar
    23    30    31   ar
    24    31    32   ar
    25    32    33   ar
    26    33    34   ar
    27    34    35    1
    28     4     5   ar
    29     5     6   ar
    30    10    11    1
    31    11    12    1
    32    17    18   ar
    33    18    19   ar
    34    19    14   ar
    35    12     7    1
    36     6     1   ar
    37    34    29   ar
    38    27    28    1
    39    35    36    1
    40    35    37    1
@<TRIPOS>MOLECULE
*****
 37 40 0 0 0
SMALL
GASTEIGER

@<TRIPOS>ATOM
      1 C          61.6540   92.6230    2.0449 C.ar    1  UNL1       -0.0224
      2 C          60.9685   92.7768    0.7197 C.ar    1  UNL1       -0.0041
      3 C          61.7010   93.3896   -0.4369 C.ar    1  UNL1        0.0042
      4 C          63.1191   93.8485   -0.2684 C.ar    1  UNL1        0.0537
      5 C          63.8047   93.6946    1.0569 C.ar    1  UNL1        0.0042
      6 C          63.0721   93.0818    2.2135 C.ar    1  UNL1       -0.0041
      7 N          59.4564   90.7847    5.5151 N.3     1  UNL1       -0.2689
      8 C          58.7668   91.7854    4.6358 C.3     1  UNL1        0.0727
      9 C          59.4994   92.3982    3.4792 C.3     1  UNL1        0.0217
     10 C          60.9215   92.0102    3.2017 C.3     1  UNL1        0.0251
     11 C          61.6111   91.0095    4.0808 C.3     1  UNL1        0.0217
     12 C          60.8786   90.3967    5.2376 C.3     1  UNL1        0.0727
     13 C          58.7239   90.1720    6.6718 C.3     1  UNL1        0.0991
     14 C          60.8209   87.2382    9.3636 C.ar    1  UNL1        0.0536
     15 C          59.9072   86.7431    8.2820 C.ar    1  UNL1        0.0042
     16 C          59.2082   87.7210    7.3847 C.ar    1  UNL1       -0.0028
     17 C          59.4229   89.1941    7.5690 C.ar    1  UNL1       -0.0061
     18 C          60.3366   89.6892    8.6506 C.ar    1  UNL1       -0.0028
     19 C          61.0356   88.7113    9.5479 C.ar    1  UNL1        0.0042
     20 C          63.2451   84.3462   10.5921 C.3     1  UNL1        0.1152
     21 N          62.5461   85.3242    9.6949 N.am    1  UNL1       -0.2726
     22 C          62.8734   85.3659    8.2316 C.3     1  UNL1        0.1152
     23 C          61.5199   86.2603   10.2608 C.2     1  UNL1        0.2491
     24 O          61.1926   86.2186   11.7241 O.2     1  UNL1       -0.2699
     25 C          63.8516   94.4613   -1.4251 C.2     1  UNL1        0.2495
     26 O          65.0157   95.3742   -1.1769 O.2     1  UNL1       -0.2698
     27 N          63.4201   94.1611   -2.8300 N.am    1  UNL1       -0.2794
     28 H          62.6561   93.5619   -2.9929 H       1  UNL1        0.1552
     29 C          64.1526   94.7739   -3.9866 C.ar    1  UNL1        0.0636
     30 C          64.0228   96.2424   -4.2635 C.ar    1  UNL1        0.0159
     31 C          64.7553   96.8552   -5.4202 C.ar    1  UNL1        0.0014
     32 C          65.6177   95.9995   -6.3000 C.ar    1  UNL1        0.0013
     33 C          65.7476   94.5310   -6.0231 C.ar    1  UNL1        0.0153
     34 C          65.0150   93.9182   -4.8664 C.ar    1  UNL1        0.0552
     35 N          65.1449   92.4497   -4.5896 N.pl3   1  UNL1       -0.3560
     36 H          65.7109   91.8881   -5.1670 H       1  UNL1        0.1424
     37 H          64.6641   92.0475   -3.8304 H       1  UNL1        0.1424
@<TRIPOS>BOND
     1    20    21    1
     2    21    22    1
     3    21    23   am
     4    23    24    2
     5    23    14    1
     6    14    15   ar
     7    15    16   ar
     8    16    17   ar
     9    17    13    1
    10    13     7    1
    11     7     8    1
    12     8     9    1
    13     9    10    1
    14    10     1    1
    15     1     2   ar
    16     2     3   ar
    17     3     4   ar
    18     4    25    1
    19    25    26    2
    20    25    27   am
    21    27    29    1
    22    29    30   ar
    23    30    31   ar
    24    31    32   ar
    25    32    33   ar
    26    33    34   ar
    27    34    35    1
    28     4     5   ar
    29     5     6   ar
    30    10    11    1
    31    11    12    1
    32    17    18   ar
    33    18    19   ar
    34    19    14   ar
    35    12     7    1
    36     6     1   ar
    37    34    29   ar
    38    27    28    1
    39    35    36    1
    40    35    37    1
@<TRIPOS>MOLECULE
*****
 37 40 0 0 0
SMALL
GASTEIGER

@<TRIPOS>ATOM
      1 C          60.1390   89.1971    7.4036 C.ar    1  UNL1       -0.0224
      2 C          60.8736   89.7445    8.5912 C.ar    1  UNL1       -0.0041
      3 C          61.2362   88.8396    9.7312 C.ar    1  UNL1        0.0042
      4 C          60.8642   87.3873    9.6835 C.ar    1  UNL1        0.0537
      5 C          60.1296   86.8398    8.4959 C.ar    1  UNL1        0.0042
      6 C          59.7670   87.7447    7.3559 C.ar    1  UNL1       -0.0041
      7 N          59.0511   91.9117    3.9834 N.3     1  UNL1       -0.2689
      8 C          60.4878   91.5620    4.2357 C.3     1  UNL1        0.0727
      9 C          60.8504   90.6572    5.3757 C.3     1  UNL1        0.0217
     10 C          59.7763   90.1020    6.2635 C.3     1  UNL1        0.0251
     11 C          58.3397   90.4516    6.0112 C.3     1  UNL1        0.0217
     12 C          57.9770   91.3565    4.8711 C.3     1  UNL1        0.0727
     13 C          58.6885   92.8166    2.8433 C.3     1  UNL1        0.0991
     14 C          61.8197   94.0239   -0.1547 C.ar    1  UNL1        0.0536
     15 C          61.5619   94.8828    1.0477 C.ar    1  UNL1        0.0042
     16 C          60.5182   94.4803    2.0471 C.ar    1  UNL1       -0.0028
     17 C          59.7322   93.2190    1.8440 C.ar    1  UNL1       -0.0061
     18 C          59.9899   92.3602    0.6415 C.ar    1  UNL1       -0.0028
     19 C          61.0337   92.7626   -0.3578 C.ar    1  UNL1        0.0042
     20 C          63.5391   95.7141   -3.3070 C.3     1  UNL1        0.1152
     21 N          62.4954   95.3116   -2.3076 N.am    1  UNL1       -0.2726
     22 C          61.0836   95.7945   -2.4619 C.3     1  UNL1        0.1152
     23 C          62.8634   94.4263   -1.1541 C.2     1  UNL1        0.2491
     24 O          64.2751   93.9435   -0.9998 O.2     1  UNL1       -0.2699
     25 C          61.2269   86.4824   10.8236 C.2     1  UNL1        0.2495
     26 O          60.5460   86.6386   12.1510 O.2     1  UNL1       -0.2698
     27 N          62.2704   85.4213   10.6363 N.am    1  UNL1       -0.2794
     28 H          62.7173   85.3187    9.7651 H       1  UNL1        0.1552
     29 C          62.6330   84.5164   11.7763 C.ar    1  UNL1        0.0636
     30 C          62.4241   83.0360   11.6546 C.ar    1  UNL1        0.0159
     31 C          62.7867   82.1312   12.7947 C.ar    1  UNL1        0.0014
     32 C          63.3582   82.7067   14.0565 C.ar    1  UNL1        0.0013
     33 C          63.5671   84.1870   14.1782 C.ar    1  UNL1        0.0153
     34 C          63.2045   85.0920   13.0381 C.ar    1  UNL1        0.0552
     35 N          63.4135   86.5723   13.1599 N.pl3   1  UNL1       -0.3560
     36 H          63.7886   86.9500   13.9880 H       1  UNL1        0.1424
     37 H          63.1755   87.1662   12.4116 H       1  UNL1        0.1424
@<TRIPOS>BOND
     1    20    21    1
     2    21    22    1
     3    21    23   am
     4    23    24    2
     5    23    14    1
     6    14    15   ar
     7    15    16   ar
     8    16    17   ar
     9    17    13    1
    10    13     7    1
    11     7     8    1
    12     8     9    1
    13     9    10    1
    14    10     1    1
    15     1     2   ar
    16     2     3   ar
    17     3     4   ar
    18     4    25    1
    19    25    26    2
    20    25    27   am
    21    27    29    1
    22    29    30   ar
    23    30    31   ar
    24    31    32   ar
    25    32    33   ar
    26    33    34   ar
    27    34    35    1
    28     4     5   ar
    29     5     6   ar
    30    10    11    1
    31    11    12    1
    32    17    18   ar
    33    18    19   ar
    34    19    14   ar
    35    12     7    1
    36     6     1   ar
    37    34    29   ar
    38    27    28    1
    39    35    36    1
    40    35    37    1
@<TRIPOS>MOLECULE
*****
 37 40 0 0 0
SMALL
GASTEIGER

@<TRIPOS>ATOM
      1 C          60.1866   89.1620    7.4341 C.ar    1  UNL1       -0.0224
      2 C          59.7996   87.7132    7.3980 C.ar    1  UNL1       -0.0041
      3 C          60.1586   86.8124    8.5423 C.ar    1  UNL1        0.0042
      4 C          60.9046   87.3603    9.7227 C.ar    1  UNL1        0.0537
      5 C          61.2915   88.8090    9.7588 C.ar    1  UNL1        0.0042
      6 C          60.9325   89.7099    8.6145 C.ar    1  UNL1       -0.0041
      7 N          59.1096   91.8647    4.0010 N.3     1  UNL1       -0.2689
      8 C          58.0310   91.2948    4.8739 C.3     1  UNL1        0.0727
      9 C          58.3900   90.3939    6.0182 C.3     1  UNL1        0.0217
     10 C          59.8276   90.0629    6.2897 C.3     1  UNL1        0.0251
     11 C          60.9062   90.6328    5.4169 C.3     1  UNL1        0.0217
     12 C          60.5472   91.5338    4.2725 C.3     1  UNL1        0.0727
     13 C          58.7506   92.7656    2.8567 C.3     1  UNL1        0.0991
     14 C          61.9958   94.7024    0.4139 C.ar    1  UNL1        0.0536
     15 C          61.5686   93.2964    0.1132 C.ar    1  UNL1        0.0042
     16 C          60.4868   92.6508    0.9274 C.ar    1  UNL1       -0.0028
     17 C          59.8323   93.4112    2.0424 C.ar    1  UNL1       -0.0061
     18 C          60.2596   94.8172    2.3432 C.ar    1  UNL1       -0.0028
     19 C          61.3413   95.4628    1.5289 C.ar    1  UNL1        0.0042
     20 C          65.5671   96.0288   -0.6981 C.3     1  UNL1        0.1152
     21 N          64.4854   95.3832    0.1162 N.am    1  UNL1       -0.2726
     22 C          64.8115   94.7728    1.4471 C.3     1  UNL1        0.1152
     23 C          63.0776   95.3480   -0.4003 C.2     1  UNL1        0.2491
     24 O          62.7515   95.9584   -1.7311 O.2     1  UNL1       -0.2699
     25 C          61.2636   86.4593   10.8671 C.2     1  UNL1        0.2495
     26 O          60.5915   86.6321   12.1970 O.2     1  UNL1       -0.2698
     27 N          62.2945   85.3858   10.6816 N.am    1  UNL1       -0.2794
     28 H          62.7356   85.2724    9.8087 H       1  UNL1        0.1552
     29 C          62.6535   84.4849   11.8259 C.ar    1  UNL1        0.0636
     30 C          62.4298   83.0058   11.7148 C.ar    1  UNL1        0.0159
     31 C          62.7888   82.1049   12.8591 C.ar    1  UNL1        0.0014
     32 C          63.3713   82.6831   14.1146 C.ar    1  UNL1        0.0013
     33 C          63.5950   84.1621   14.2258 C.ar    1  UNL1        0.0153
     34 C          63.2360   85.0631   13.0814 C.ar    1  UNL1        0.0552
     35 N          63.4597   86.5421   13.1926 N.pl3   1  UNL1       -0.3560
     36 H          63.8420   86.9215   14.0167 H       1  UNL1        0.1424
     37 H          63.2241   87.1334   12.4415 H       1  UNL1        0.1424
@<TRIPOS>BOND
     1    20    21    1
     2    21    22    1
     3    21    23   am
     4    23    24    2
     5    23    14    1
     6    14    15   ar
     7    15    16   ar
     8    16    17   ar
     9    17    13    1
    10    13     7    1
    11     7     8    1
    12     8     9    1
    13     9    10    1
    14    10     1    1
    15     1     2   ar
    16     2     3   ar
    17     3     4   ar
    18     4    25    1
    19    25    26    2
    20    25    27   am
    21    27    29    1
    22    29    30   ar
    23    30    31   ar
    24    31    32   ar
    25    32    33   ar
    26    33    34   ar
    27    34    35    1
    28     4     5   ar
    29     5     6   ar
    30    10    11    1
    31    11    12    1
    32    17    18   ar
    33    18    19   ar
    34    19    14   ar
    35    12     7    1
    36     6     1   ar
    37    34    29   ar
    38    27    28    1
    39    35    36    1
    40    35    37    1
@<TRIPOS>MOLECULE
*****
 37 40 0 0 0
SMALL
GASTEIGER

@<TRIPOS>ATOM
      1 C          60.8690   92.7316    2.5079 C.ar    1  UNL1       -0.0224
      2 C          62.3206   92.6275    2.1446 C.ar    1  UNL1       -0.0041
      3 C          62.8660   93.4270    0.9987 C.ar    1  UNL1        0.0042
      4 C          61.9599   94.3305    0.2160 C.ar    1  UNL1        0.0537
      5 C          60.5083   94.4346    0.5793 C.ar    1  UNL1        0.0042
      6 C          59.9629   93.6351    1.7252 C.ar    1  UNL1       -0.0041
      7 N          59.2323   90.3332    5.9459 N.3     1  UNL1       -0.2689
      8 C          58.3251   91.2328    5.1598 C.3     1  UNL1        0.0727
      9 C          58.8707   92.0322    4.0138 C.3     1  UNL1        0.0217
     10 C          60.3234   91.9321    3.6539 C.3     1  UNL1        0.0251
     11 C          61.2306   91.0326    4.4400 C.3     1  UNL1        0.0217
     12 C          60.6850   90.2331    5.5860 C.3     1  UNL1        0.0727
     13 C          58.6867   89.5338    7.0918 C.3     1  UNL1        0.0991
     14 C          61.4573   88.0132   10.2952 C.ar    1  UNL1        0.0536
     15 C          61.2079   89.4858   10.1563 C.ar    1  UNL1        0.0042
     16 C          60.2844   89.9926    9.0885 C.ar    1  UNL1       -0.0028
     17 C          59.6102   89.0269    8.1596 C.ar    1  UNL1       -0.0061
     18 C          59.8596   87.5544    8.2986 C.ar    1  UNL1       -0.0028
     19 C          60.7831   87.0475    9.3664 C.ar    1  UNL1        0.0042
     20 C          63.9402   87.9608   13.3908 C.3     1  UNL1        0.1152
     21 N          63.0167   88.4677   12.3230 N.am    1  UNL1       -0.2726
     22 C          62.7290   89.9359   12.2151 C.3     1  UNL1        0.1152
     23 C          62.3808   87.5063   11.3631 C.2     1  UNL1        0.2491
     24 O          62.6684   86.0382   11.4710 O.2     1  UNL1       -0.2699
     25 C          62.5055   95.1300   -0.9300 C.2     1  UNL1        0.2495
     26 O          62.7419   96.6028   -0.7717 O.2     1  UNL1       -0.2698
     27 N          62.8146   94.4567   -2.2343 N.am    1  UNL1       -0.2794
     28 H          62.6594   93.4901   -2.3382 H       1  UNL1        0.1552
     29 C          63.3601   95.2562   -3.3802 C.ar    1  UNL1        0.0636
     30 C          64.7926   95.7011   -3.3696 C.ar    1  UNL1        0.0159
     31 C          65.3382   96.5006   -4.5155 C.ar    1  UNL1        0.0014
     32 C          64.4512   96.8552   -5.6721 C.ar    1  UNL1        0.0013
     33 C          63.0188   96.4104   -5.6827 C.ar    1  UNL1        0.0153
     34 C          62.4732   95.6109   -4.5367 C.ar    1  UNL1        0.0552
     35 N          61.0407   95.1661   -4.5473 N.pl3   1  UNL1       -0.3560
     36 H          60.4586   95.3989   -5.3064 H       1  UNL1        0.1424
     37 H          60.6826   94.6413   -3.7952 H       1  UNL1        0.1424
@<TRIPOS>BOND
     1    20    21    1
     2    21    22    1
     3    21    23   am
     4    23    24    2
     5    23    14    1
     6    14    15   ar
     7    15    16   ar
     8    16    17   ar
     9    17    13    1
    10    13     7    1
    11     7     8    1
    12     8     9    1
    13     9    10    1
    14    10     1    1
    15     1     2   ar
    16     2     3   ar
    17     3     4   ar
    18     4    25    1
    19    25    26    2
    20    25    27   am
    21    27    29    1
    22    29    30   ar
    23    30    31   ar
    24    31    32   ar
    25    32    33   ar
    26    33    34   ar
    27    34    35    1
    28     4     5   ar
    29     5     6   ar
    30    10    11    1
    31    11    12    1
    32    17    18   ar
    33    18    19   ar
    34    19    14   ar
    35    12     7    1
    36     6     1   ar
    37    34    29   ar
    38    27    28    1
    39    35    36    1
    40    35    37    1
@<TRIPOS>MOLECULE
*****
 37 40 0 0 0
SMALL
GASTEIGER

@<TRIPOS>ATOM
      1 C          59.8716   90.7108    5.7060 C.ar    1  UNL1       -0.0224
      2 C          61.1235   90.9177    4.9060 C.ar    1  UNL1       -0.0041
      3 C          61.0699   91.6734    3.6114 C.ar    1  UNL1        0.0042
      4 C          59.7644   92.2222    3.1168 C.ar    1  UNL1        0.0537
      5 C          58.5126   92.0153    3.9168 C.ar    1  UNL1        0.0042
      6 C          58.5662   91.2596    5.2114 C.ar    1  UNL1       -0.0041
      7 N          60.0324   88.4437    9.5899 N.3     1  UNL1       -0.2689
      8 C          60.7729   89.7403    9.4471 C.3     1  UNL1        0.0727
      9 C          60.7193   90.4960    8.1525 C.3     1  UNL1        0.0217
     10 C          59.9252   89.9551    7.0006 C.3     1  UNL1        0.0251
     11 C          59.1847   88.6585    7.1434 C.3     1  UNL1        0.0217
     12 C          59.2383   87.9027    8.4380 C.3     1  UNL1        0.0727
     13 C          60.0860   87.6880   10.8845 C.3     1  UNL1        0.0991
     14 C          63.0098   84.3057   11.3962 C.ar    1  UNL1        0.0536
     15 C          62.3031   84.4946   10.0866 C.ar    1  UNL1        0.0042
     16 C          61.3285   85.6220    9.9161 C.ar    1  UNL1       -0.0028
     17 C          61.0606   86.5606   11.0551 C.ar    1  UNL1       -0.0061
     18 C          61.7672   86.3717   12.3646 C.ar    1  UNL1       -0.0028
     19 C          62.7418   85.2443   12.5351 C.ar    1  UNL1        0.0042
     20 C          64.8688   81.1567   12.9382 C.3     1  UNL1        0.1152
     21 N          63.8942   82.2842   12.7677 N.am    1  UNL1       -0.2726
     22 C          62.8293   82.5174   13.7981 C.3     1  UNL1        0.1152
     23 C          63.9844   83.1783   11.5667 C.2     1  UNL1        0.2491
     24 O          65.0492   82.9451   10.5364 O.2     1  UNL1       -0.2699
     25 C          59.7108   92.9780    1.8222 C.2     1  UNL1        0.2495
     26 O          59.6402   94.4763    1.8308 O.2     1  UNL1       -0.2698
     27 N          59.7279   92.2354    0.5190 N.am    1  UNL1       -0.2794
     28 H          59.7742   91.2520    0.5134 H       1  UNL1        0.1552
     29 C          59.6743   92.9912   -0.7756 C.ar    1  UNL1        0.0636
     30 C          60.8478   93.8181   -1.2104 C.ar    1  UNL1        0.0159
     31 C          60.7943   94.5739   -2.5050 C.ar    1  UNL1        0.0014
     32 C          59.5672   94.5027   -3.3647 C.ar    1  UNL1        0.0013
     33 C          58.3937   93.6758   -2.9300 C.ar    1  UNL1        0.0153
     34 C          58.4472   92.9200   -1.6353 C.ar    1  UNL1        0.0552
     35 N          57.2737   92.0931   -1.2006 N.pl3   1  UNL1       -0.3560
     36 H          56.4683   92.0464   -1.7649 H       1  UNL1        0.1424
     37 H          57.3088   91.5971   -0.3509 H       1  UNL1        0.1424
@<TRIPOS>BOND
     1    20    21    1
     2    21    22    1
     3    21    23   am
     4    23    24    2
     5    23    14    1
     6    14    15   ar
     7    15    16   ar
     8    16    17   ar
     9    17    13    1
    10    13     7    1
    11     7     8    1
    12     8     9    1
    13     9    10    1
    14    10     1    1
    15     1     2   ar
    16     2     3   ar
    17     3     4   ar
    18     4    25    1
    19    25    26    2
    20    25    27   am
    21    27    29    1
    22    29    30   ar
    23    30    31   ar
    24    31    32   ar
    25    32    33   ar
    26    33    34   ar
    27    34    35    1
    28     4     5   ar
    29     5     6   ar
    30    10    11    1
    31    11    12    1
    32    17    18   ar
    33    18    19   ar
    34    19    14   ar
    35    12     7    1
    36     6     1   ar
    37    34    29   ar
    38    27    28    1
    39    35    36    1
    40    35    37    1
