@<TRIPOS>MOLECULE
*****
 37 41 0 0 0
SMALL
GASTEIGER

@<TRIPOS>ATOM
      1 C          61.1052   90.7122   10.8334 C.3     1  UNL1        0.0553
      2 C          61.7713   89.5449   11.4996 C.ar    1  UNL1        0.0935
      3 N          61.6072   88.1026   11.1217 N.ar    1  UNL1       -0.1727
      4 N          62.4529   87.2812   12.0492 N.ar    1  UNL1       -0.2558
      5 C          63.1397   88.2159   13.0003 C.ar    1  UNL1        0.0704
      6 C          64.0821   87.8209   14.0983 C.3     1  UNL1        0.0531
      7 C          62.7184   89.6149   12.6607 C.ar    1  UNL1        0.0792
      8 C          62.5881   85.7874   12.0291 C.3     1  UNL1        0.1083
      9 C          62.5333   85.0121   13.3120 C.3     1  UNL1        0.0459
     10 C          62.6684   83.5183   13.2920 C.3     1  UNL1        0.0955
     11 N          62.8584   82.8000   11.9889 N.am    1  UNL1       -0.2775
     12 C          62.9936   81.3061   11.9688 C.2     1  UNL1        0.2525
     13 O          63.1835   80.5877   10.6658 O.2     1  UNL1       -0.2723
     14 C          62.9132   83.5753   10.7060 C.3     1  UNL1        0.0955
     15 C          62.7780   85.0691   10.7262 C.3     1  UNL1        0.0459
     16 C          62.9388   80.5308   13.2517 C.3     1  UNL1        0.1869
     17 C          61.6903   79.7887   13.6268 C.3     1  UNL1        0.0417
     18 O          64.1324   80.4975   14.1596 O.3     1  UNL1       -0.3758
     19 H          63.9310   79.9562   14.9389 H       1  UNL1        0.2110
     20 N          63.1657   90.8646   13.3594 N.pl3   1  UNL1       -0.2806
     21 H          62.5075   91.4333   13.8203 H       1  UNL1        0.1551
     22 C          64.6160   91.2478   13.3558 C.ar    1  UNL1        0.2208
     23 N          65.4644   90.9837   14.5643 N.ar    1  UNL1       -0.2111
     24 C          66.9146   91.3669   14.5607 C.ar    1  UNL1        0.1147
     25 C          67.5164   92.0142   13.3487 C.ar    1  UNL1        0.0946
     26 CL         68.9666   92.3974   13.3451 Cl      1  UNL1       -0.0790
     27 C          66.6679   92.2783   12.1402 C.ar    1  UNL1        0.0992
     28 N          65.2177   91.8951   12.1438 N.ar    1  UNL1       -0.2126
     29 C          67.2696   92.9256   10.9282 C.ar    1  UNL1        0.0572
     30 C          68.3249   92.3310   10.0434 C.ar    1  UNL1        0.1235
     31 N          68.6291   93.3190    8.9566 N.ar    1  UNL1       -0.1634
     32 N          67.7620   94.5243    9.1697 N.ar    1  UNL1       -0.2281
     33 C          67.6289   95.8117    8.4116 C.ar    1  UNL1        0.1004
     34 C          66.6555   96.8560    8.8721 C.ar    1  UNL1        0.0207
     35 C          65.8153   96.6128   10.0906 C.ar    1  UNL1        0.0031
     36 C          65.9483   95.3253   10.8487 C.ar    1  UNL1        0.0193
     37 C          66.9217   94.2811   10.3882 C.ar    1  UNL1        0.0858
@<TRIPOS>BOND
     1     1     2    1
     2     2     3   ar
     3     3     4   ar
     4     4     8    1
     5     8     9    1
     6     9    10    1
     7    10    11    1
     8    11    12   am
     9    12    13    2
    10    12    16    1
    11    16    17    1
    12    16    18    1
    13    11    14    1
    14    14    15    1
    15     4     5   ar
    16     5     6    1
    17     5     7   ar
    18     7    20    1
    19    20    22    1
    20    22    23   ar
    21    23    24   ar
    22    24    25   ar
    23    25    26    1
    24    25    27   ar
    25    27    29    1
    26    29    30   ar
    27    30    31   ar
    28    31    32   ar
    29    32    33   ar
    30    33    34   ar
    31    34    35   ar
    32    35    36   ar
    33    36    37   ar
    34    27    28   ar
    35     7     2   ar
    36    28    22   ar
    37    15     8    1
    38    37    29   ar
    39    37    32   ar
    40    18    19    1
    41    20    21    1
@<TRIPOS>MOLECULE
*****
 37 41 0 0 0
SMALL
GASTEIGER

@<TRIPOS>ATOM
      1 C          62.3892   86.7192   18.3984 C.3     1  UNL1        0.0553
      2 C          63.0273   87.0901   17.0926 C.ar    1  UNL1        0.0935
      3 N          63.1690   88.4788   16.5435 N.ar    1  UNL1       -0.1727
      4 N          63.8650   88.3844   15.2180 N.ar    1  UNL1       -0.2558
      5 C          64.1534   86.9374   14.9479 C.ar    1  UNL1        0.0704
      6 C          64.8391   86.3870   13.7328 C.3     1  UNL1        0.0531
      7 C          63.6357   86.1374   16.1064 C.ar    1  UNL1        0.0792
      8 C          64.2117   89.5350   14.3202 C.3     1  UNL1        0.1083
      9 C          65.2027   90.5664   14.7718 C.3     1  UNL1        0.0459
     10 C          65.5494   91.7171   13.8741 C.3     1  UNL1        0.0955
     11 N          64.9050   91.8362   12.5248 N.am    1  UNL1       -0.2775
     12 C          65.2517   92.9868   11.6270 C.2     1  UNL1        0.2525
     13 O          64.6074   93.1060   10.2777 O.2     1  UNL1       -0.2723
     14 C          63.9140   90.8047   12.0732 C.3     1  UNL1        0.0955
     15 C          63.5674   89.6541   12.9710 C.3     1  UNL1        0.0459
     16 C          66.2428   94.0183   12.0786 C.3     1  UNL1        0.1869
     17 C          66.1854   95.4089   11.5194 C.3     1  UNL1        0.0417
     18 O          67.2912   93.6591   13.0895 O.3     1  UNL1       -0.3758
     19 H          67.8458   94.4343   13.2695 H       1  UNL1        0.2110
     20 N          63.7128   84.6467   16.2532 N.pl3   1  UNL1       -0.2806
     21 H          63.9379   84.2489   17.1252 H       1  UNL1        0.1551
     22 C          63.4469   83.7619   15.0715 C.ar    1  UNL1        0.2208
     23 N          63.2322   82.2906   15.2694 N.ar    1  UNL1       -0.2111
     24 C          62.9663   81.4059   14.0876 C.ar    1  UNL1        0.1147
     25 C          62.9151   81.9924   12.7080 C.ar    1  UNL1        0.0946
     26 CL         62.6492   81.1076   11.5263 Cl      1  UNL1       -0.0790
     27 C          63.1298   83.4638   12.5101 C.ar    1  UNL1        0.0992
     28 N          63.3957   84.3484   13.6918 N.ar    1  UNL1       -0.2126
     29 C          63.0786   84.0503   11.1305 C.ar    1  UNL1        0.0572
     30 C          63.8054   83.5325    9.9248 C.ar    1  UNL1        0.1235
     31 N          63.4676   84.4199    8.7635 N.ar    1  UNL1       -0.1634
     32 N          62.5321   85.4860    9.2515 N.ar    1  UNL1       -0.2281
     33 C          61.8680   86.6353    8.5528 C.ar    1  UNL1        0.1004
     34 C          60.9637   87.5562    9.3170 C.ar    1  UNL1        0.0207
     35 C          60.7233   87.3278   10.7799 C.ar    1  UNL1        0.0031
     36 C          61.3873   86.1785   11.4786 C.ar    1  UNL1        0.0193
     37 C          62.2917   85.2576   10.7144 C.ar    1  UNL1        0.0858
@<TRIPOS>BOND
     1     1     2    1
     2     2     3   ar
     3     3     4   ar
     4     4     8    1
     5     8     9    1
     6     9    10    1
     7    10    11    1
     8    11    12   am
     9    12    13    2
    10    12    16    1
    11    16    17    1
    12    16    18    1
    13    11    14    1
    14    14    15    1
    15     4     5   ar
    16     5     6    1
    17     5     7   ar
    18     7    20    1
    19    20    22    1
    20    22    23   ar
    21    23    24   ar
    22    24    25   ar
    23    25    26    1
    24    25    27   ar
    25    27    29    1
    26    29    30   ar
    27    30    31   ar
    28    31    32   ar
    29    32    33   ar
    30    33    34   ar
    31    34    35   ar
    32    35    36   ar
    33    36    37   ar
    34    27    28   ar
    35     7     2   ar
    36    28    22   ar
    37    15     8    1
    38    37    29   ar
    39    37    32   ar
    40    18    19    1
    41    20    21    1
@<TRIPOS>MOLECULE
*****
 37 41 0 0 0
SMALL
GASTEIGER

@<TRIPOS>ATOM
      1 C          63.3900   90.5827   11.8177 C.3     1  UNL1        0.0553
      2 C          63.4414   89.4036   12.7435 C.ar    1  UNL1        0.0935
      3 N          63.4469   87.9606   12.3340 N.ar    1  UNL1       -0.1727
      4 N          63.5052   87.1257   13.5789 N.ar    1  UNL1       -0.2558
      5 C          63.5357   88.0527   14.7577 C.ar    1  UNL1        0.0704
      6 C          63.5952   87.6437   16.1996 C.3     1  UNL1        0.0531
      7 C          63.4963   89.4606   14.2415 C.ar    1  UNL1        0.0792
      8 C          63.5288   85.6269   13.6350 C.3     1  UNL1        0.1083
      9 C          62.4407   84.8344   12.9732 C.3     1  UNL1        0.0459
     10 C          62.4643   83.3356   13.0293 C.3     1  UNL1        0.0955
     11 N          63.5761   82.6294   13.7472 N.am    1  UNL1       -0.2775
     12 C          63.5997   81.1306   13.8033 C.2     1  UNL1        0.2525
     13 O          64.7114   80.4244   14.5212 O.2     1  UNL1       -0.2723
     14 C          64.6642   83.4220   14.4090 C.3     1  UNL1        0.0955
     15 C          64.6405   84.9207   14.3529 C.3     1  UNL1        0.0459
     16 C          62.5116   80.3381   13.1415 C.3     1  UNL1        0.1869
     17 C          61.2005   80.1344   13.8412 C.3     1  UNL1        0.0417
     18 O          62.7346   79.7493   11.7801 O.3     1  UNL1       -0.3758
     19 H          61.9381   79.2717   11.4999 H       1  UNL1        0.2110
     20 N          63.5094   90.7066   15.0765 N.pl3   1  UNL1       -0.2806
     21 H          62.7411   90.9204   15.6537 H       1  UNL1        0.1551
     22 C          64.6932   91.6267   15.0322 C.ar    1  UNL1        0.2208
     23 N          65.5572   91.7963   16.2465 N.ar    1  UNL1       -0.2111
     24 C          66.7410   92.7164   16.2022 C.ar    1  UNL1        0.1147
     25 C          67.0608   93.4670   14.9435 C.ar    1  UNL1        0.0946
     26 CL         68.2445   94.3872   14.8991 Cl      1  UNL1       -0.0790
     27 C          66.1967   93.2975   13.7290 C.ar    1  UNL1        0.0992
     28 N          65.0130   92.3773   13.7734 N.ar    1  UNL1       -0.2126
     29 C          66.5164   94.0481   12.4703 C.ar    1  UNL1        0.0572
     30 C          66.2483   95.5024   12.2188 C.ar    1  UNL1        0.1235
     31 N          66.7266   95.8292   10.8352 N.ar    1  UNL1       -0.1634
     32 N          67.2903   94.5770   10.2316 N.ar    1  UNL1       -0.2281
     33 C          67.9051   94.2970    8.8924 C.ar    1  UNL1        0.1004
     34 C          68.3899   92.9161    8.5638 C.ar    1  UNL1        0.0207
     35 C          68.2600   91.8153    9.5744 C.ar    1  UNL1        0.0031
     36 C          67.6452   92.0953   10.9136 C.ar    1  UNL1        0.0193
     37 C          67.1604   93.4762   11.2422 C.ar    1  UNL1        0.0858
@<TRIPOS>BOND
     1     1     2    1
     2     2     3   ar
     3     3     4   ar
     4     4     8    1
     5     8     9    1
     6     9    10    1
     7    10    11    1
     8    11    12   am
     9    12    13    2
    10    12    16    1
    11    16    17    1
    12    16    18    1
    13    11    14    1
    14    14    15    1
    15     4     5   ar
    16     5     6    1
    17     5     7   ar
    18     7    20    1
    19    20    22    1
    20    22    23   ar
    21    23    24   ar
    22    24    25   ar
    23    25    26    1
    24    25    27   ar
    25    27    29    1
    26    29    30   ar
    27    30    31   ar
    28    31    32   ar
    29    32    33   ar
    30    33    34   ar
    31    34    35   ar
    32    35    36   ar
    33    36    37   ar
    34    27    28   ar
    35     7     2   ar
    36    28    22   ar
    37    15     8    1
    38    37    29   ar
    39    37    32   ar
    40    18    19    1
    41    20    21    1
@<TRIPOS>MOLECULE
*****
 37 41 0 0 0
SMALL
GASTEIGER

@<TRIPOS>ATOM
      1 C          58.9752   89.2188   12.5214 C.3     1  UNL1        0.0553
      2 C          60.3533   89.7884   12.3590 C.ar    1  UNL1        0.0935
      3 N          61.3217   90.0829   13.4660 N.ar    1  UNL1       -0.1727
      4 N          62.5719   90.6401   12.8523 N.ar    1  UNL1       -0.2558
      5 C          62.3762   90.6900   11.3660 C.ar    1  UNL1        0.0704
      6 C          63.3759   91.1802   10.3610 C.3     1  UNL1        0.0531
      7 C          61.0050   90.1637   11.0610 C.ar    1  UNL1        0.0792
      8 C          63.8019   91.0716   13.5945 C.3     1  UNL1        0.1083
      9 C          64.9798   91.6156   12.8419 C.3     1  UNL1        0.0459
     10 C          66.2099   92.0471   13.5842 C.3     1  UNL1        0.0955
     11 N          66.2618   91.9346   15.0790 N.am    1  UNL1       -0.2775
     12 C          67.4919   92.3661   15.8213 C.2     1  UNL1        0.2525
     13 O          67.5439   92.2536   17.3162 O.2     1  UNL1       -0.2723
     14 C          65.0839   91.3906   15.8317 C.3     1  UNL1        0.0955
     15 C          63.8539   90.9591   15.0893 C.3     1  UNL1        0.0459
     16 C          68.6698   92.9101   15.0687 C.3     1  UNL1        0.1869
     17 C          69.3963   94.1173   15.5835 C.3     1  UNL1        0.0417
     18 O          69.1213   92.2470   13.8012 O.3     1  UNL1       -0.3758
     19 H          69.8890   92.7205   13.4443 H       1  UNL1        0.2110
     20 N          60.3929   90.0351    9.6977 N.pl3   1  UNL1       -0.2806
     21 H          59.9709   90.8161    9.2720 H       1  UNL1        0.1551
     22 C          60.4237   88.7167    8.9830 C.ar    1  UNL1        0.2208
     23 N          59.4835   88.4595    7.8428 N.ar    1  UNL1       -0.2111
     24 C          59.5144   87.1411    7.1281 C.ar    1  UNL1        0.1147
     25 C          60.4854   86.0799    7.5535 C.ar    1  UNL1        0.0946
     26 CL         60.5162   84.7615    6.8388 Cl      1  UNL1       -0.0790
     27 C          61.4256   86.3371    8.6937 C.ar    1  UNL1        0.0992
     28 N          61.3947   87.6555    9.4083 N.ar    1  UNL1       -0.2126
     29 C          62.3966   85.2759    9.1191 C.ar    1  UNL1        0.0572
     30 C          63.2408   84.4364    8.2066 C.ar    1  UNL1        0.1235
     31 N          64.0598   83.5096    9.0553 N.ar    1  UNL1       -0.1634
     32 N          63.7218   83.7762   10.4921 N.ar    1  UNL1       -0.2281
     33 C          64.2172   83.1660   11.7697 C.ar    1  UNL1        0.1004
     34 C          63.6847   83.6475   13.0867 C.ar    1  UNL1        0.0207
     35 C          62.6568   84.7392   13.1261 C.ar    1  UNL1        0.0031
     36 C          62.1613   85.3494   11.8486 C.ar    1  UNL1        0.0193
     37 C          62.6939   84.8679   10.5316 C.ar    1  UNL1        0.0858
@<TRIPOS>BOND
     1     1     2    1
     2     2     3   ar
     3     3     4   ar
     4     4     8    1
     5     8     9    1
     6     9    10    1
     7    10    11    1
     8    11    12   am
     9    12    13    2
    10    12    16    1
    11    16    17    1
    12    16    18    1
    13    11    14    1
    14    14    15    1
    15     4     5   ar
    16     5     6    1
    17     5     7   ar
    18     7    20    1
    19    20    22    1
    20    22    23   ar
    21    23    24   ar
    22    24    25   ar
    23    25    26    1
    24    25    27   ar
    25    27    29    1
    26    29    30   ar
    27    30    31   ar
    28    31    32   ar
    29    32    33   ar
    30    33    34   ar
    31    34    35   ar
    32    35    36   ar
    33    36    37   ar
    34    27    28   ar
    35     7     2   ar
    36    28    22   ar
    37    15     8    1
    38    37    29   ar
    39    37    32   ar
    40    18    19    1
    41    20    21    1
@<TRIPOS>MOLECULE
*****
 37 41 0 0 0
SMALL
GASTEIGER

@<TRIPOS>ATOM
      1 C          59.7654   89.8835    8.1655 C.3     1  UNL1        0.0553
      2 C          60.8315   89.7264    9.2089 C.ar    1  UNL1        0.0935
      3 N          61.5986   90.8388    9.8601 N.ar    1  UNL1       -0.1727
      4 N          62.5590   90.2292   10.8380 N.ar    1  UNL1       -0.2558
      5 C          62.3854   88.7400   10.7912 C.ar    1  UNL1        0.0704
      6 C          63.1458   87.7376   11.6077 C.3     1  UNL1        0.0531
      7 C          61.3178   88.4292    9.7843 C.ar    1  UNL1        0.0792
      8 C          63.5235   90.9774   11.7097 C.3     1  UNL1        0.1083
      9 C          63.6505   90.6249   13.1622 C.3     1  UNL1        0.0459
     10 C          64.6151   91.3731   14.0340 C.3     1  UNL1        0.0955
     11 N          65.4525   92.4738   13.4531 N.am    1  UNL1       -0.2775
     12 C          66.4171   93.2220   14.3249 C.2     1  UNL1        0.2525
     13 O          67.2546   94.3226   13.7441 O.2     1  UNL1       -0.2723
     14 C          65.3255   92.8262   12.0006 C.3     1  UNL1        0.0955
     15 C          64.3609   92.0779   11.1290 C.3     1  UNL1        0.0459
     16 C          66.5442   92.8695   15.7773 C.3     1  UNL1        0.1869
     17 C          67.8684   92.4324   16.3299 C.3     1  UNL1        0.0417
     18 O          65.3470   92.9543   16.6772 O.3     1  UNL1       -0.3758
     19 H          65.5998   92.6946   17.5769 H       1  UNL1        0.2110
     20 N          60.8232   87.0615    9.4173 N.pl3   1  UNL1       -0.2806
     21 H          59.9280   86.9513    9.0227 H       1  UNL1        0.1551
     22 C          61.6926   85.8617    9.6513 C.ar    1  UNL1        0.2208
     23 N          62.4540   85.2534    8.5111 N.ar    1  UNL1       -0.2111
     24 C          63.3234   84.0536    8.7452 C.ar    1  UNL1        0.1147
     25 C          63.4312   83.4622   10.1195 C.ar    1  UNL1        0.0946
     26 CL         64.3005   82.2624   10.3536 Cl      1  UNL1       -0.0790
     27 C          62.6697   84.0706   11.2597 C.ar    1  UNL1        0.0992
     28 N          61.8004   85.2703   11.0256 N.ar    1  UNL1       -0.2126
     29 C          62.7775   83.4792   12.6340 C.ar    1  UNL1        0.0572
     30 C          62.4705   82.0598   13.0096 C.ar    1  UNL1        0.1235
     31 N          62.7146   81.9067   14.4817 N.ar    1  UNL1       -0.1634
     32 N          63.1725   83.2315   15.0158 N.ar    1  UNL1       -0.2281
     33 C          63.5590   83.6784   16.3945 C.ar    1  UNL1        0.1004
     34 C          63.9845   85.0971   16.6313 C.ar    1  UNL1        0.0207
     35 C          64.0234   86.0690   15.4893 C.ar    1  UNL1        0.0031
     36 C          63.6369   85.6221   14.1106 C.ar    1  UNL1        0.0193
     37 C          63.2114   84.2033   13.8739 C.ar    1  UNL1        0.0858
@<TRIPOS>BOND
     1     1     2    1
     2     2     3   ar
     3     3     4   ar
     4     4     8    1
     5     8     9    1
     6     9    10    1
     7    10    11    1
     8    11    12   am
     9    12    13    2
    10    12    16    1
    11    16    17    1
    12    16    18    1
    13    11    14    1
    14    14    15    1
    15     4     5   ar
    16     5     6    1
    17     5     7   ar
    18     7    20    1
    19    20    22    1
    20    22    23   ar
    21    23    24   ar
    22    24    25   ar
    23    25    26    1
    24    25    27   ar
    25    27    29    1
    26    29    30   ar
    27    30    31   ar
    28    31    32   ar
    29    32    33   ar
    30    33    34   ar
    31    34    35   ar
    32    35    36   ar
    33    36    37   ar
    34    27    28   ar
    35     7     2   ar
    36    28    22   ar
    37    15     8    1
    38    37    29   ar
    39    37    32   ar
    40    18    19    1
    41    20    21    1
@<TRIPOS>MOLECULE
*****
 37 41 0 0 0
SMALL
GASTEIGER

@<TRIPOS>ATOM
      1 C          62.6596   87.2073   18.6684 C.3     1  UNL1        0.0553
      2 C          62.9001   86.6749   17.2869 C.ar    1  UNL1        0.0935
      3 N          62.6745   85.2626   16.8347 N.ar    1  UNL1       -0.1727
      4 N          63.0433   85.1761   15.3832 N.ar    1  UNL1       -0.2558
      5 C          63.4969   86.5349   14.9384 C.ar    1  UNL1        0.0704
      6 C          63.9580   86.9028   13.5594 C.3     1  UNL1        0.0531
      7 C          63.4084   87.4612   16.1150 C.ar    1  UNL1        0.0792
      8 C          62.9712   83.9466   14.5270 C.3     1  UNL1        0.1083
      9 C          63.3151   84.0268   13.0691 C.3     1  UNL1        0.0459
     10 C          63.2431   82.7972   12.2128 C.3     1  UNL1        0.0955
     11 N          62.8271   81.4877   12.8144 N.am    1  UNL1       -0.2775
     12 C          62.7550   80.2582   11.9581 C.2     1  UNL1        0.2525
     13 O          62.3390   78.9485   12.5597 O.2     1  UNL1       -0.2723
     14 C          62.4832   81.4075   14.2723 C.3     1  UNL1        0.0955
     15 C          62.5553   82.6371   15.1285 C.3     1  UNL1        0.0459
     16 C          63.0989   80.3383   10.5003 C.3     1  UNL1        0.1869
     17 C          62.7452   79.2055    9.5829 C.3     1  UNL1        0.0417
     18 O          63.7965   81.5513    9.9598 O.3     1  UNL1       -0.3758
     19 H          63.9435   81.4422    9.0072 H       1  UNL1        0.2110
     20 N          63.7654   88.9181   16.1189 N.pl3   1  UNL1       -0.2806
     21 H          63.9524   89.3767   16.9698 H       1  UNL1        0.1551
     22 C          63.8376   89.6762   14.8266 C.ar    1  UNL1        0.2208
     23 N          64.9784   90.6160   14.5711 N.ar    1  UNL1       -0.2111
     24 C          65.0505   91.3741   13.2789 C.ar    1  UNL1        0.1147
     25 C          63.9818   91.1924   12.2421 C.ar    1  UNL1        0.0946
     26 CL         64.0540   91.9505   10.9498 Cl      1  UNL1       -0.0790
     27 C          62.8410   90.2526   12.4976 C.ar    1  UNL1        0.0992
     28 N          62.7689   89.4945   13.7898 N.ar    1  UNL1       -0.2126
     29 C          61.7723   90.0709   11.4608 C.ar    1  UNL1        0.0572
     30 C          60.6758   91.0444   11.1448 C.ar    1  UNL1        0.1235
     31 N          59.8383   90.4589   10.0467 N.ar    1  UNL1       -0.1634
     32 N          60.4173   89.1235    9.6840 N.ar    1  UNL1       -0.2281
     33 C          60.0106   88.0950    8.6708 C.ar    1  UNL1        0.1004
     34 C          60.7991   86.8266    8.5315 C.ar    1  UNL1        0.0207
     35 C          61.9943   86.5868    9.4055 C.ar    1  UNL1        0.0031
     36 C          62.4011   87.6153   10.4187 C.ar    1  UNL1        0.0193
     37 C          61.6126   88.8837   10.5579 C.ar    1  UNL1        0.0858
@<TRIPOS>BOND
     1     1     2    1
     2     2     3   ar
     3     3     4   ar
     4     4     8    1
     5     8     9    1
     6     9    10    1
     7    10    11    1
     8    11    12   am
     9    12    13    2
    10    12    16    1
    11    16    17    1
    12    16    18    1
    13    11    14    1
    14    14    15    1
    15     4     5   ar
    16     5     6    1
    17     5     7   ar
    18     7    20    1
    19    20    22    1
    20    22    23   ar
    21    23    24   ar
    22    24    25   ar
    23    25    26    1
    24    25    27   ar
    25    27    29    1
    26    29    30   ar
    27    30    31   ar
    28    31    32   ar
    29    32    33   ar
    30    33    34   ar
    31    34    35   ar
    32    35    36   ar
    33    36    37   ar
    34    27    28   ar
    35     7     2   ar
    36    28    22   ar
    37    15     8    1
    38    37    29   ar
    39    37    32   ar
    40    18    19    1
    41    20    21    1
@<TRIPOS>MOLECULE
*****
 37 41 0 0 0
SMALL
GASTEIGER

@<TRIPOS>ATOM
      1 C          59.9205   89.3370    8.3671 C.3     1  UNL1        0.0553
      2 C          60.7364   88.6553    9.4251 C.ar    1  UNL1        0.0935
      3 N          60.7914   87.1783    9.6811 N.ar    1  UNL1       -0.1727
      4 N          61.7297   86.9411   10.8272 N.ar    1  UNL1       -0.2558
      5 C          62.2545   88.2714   11.2796 C.ar    1  UNL1        0.0704
      6 C          63.2231   88.5019   12.4015 C.3     1  UNL1        0.0531
      7 C          61.6407   89.3310   10.4131 C.ar    1  UNL1        0.0792
      8 C          62.0813   85.6076   11.4173 C.3     1  UNL1        0.1083
      9 C          61.9254   84.3606   10.5985 C.3     1  UNL1        0.0459
     10 C          62.2770   83.0270   11.1886 C.3     1  UNL1        0.0955
     11 N          62.7846   82.9407   12.5975 N.am    1  UNL1       -0.2775
     12 C          63.1362   81.6072   13.1876 C.2     1  UNL1        0.2525
     13 O          63.6438   81.5208   14.5965 O.2     1  UNL1       -0.2723
     14 C          62.9405   84.1878   13.4163 C.3     1  UNL1        0.0955
     15 C          62.5889   85.5213   12.8261 C.3     1  UNL1        0.0459
     16 C          62.9803   80.3601   12.3688 C.3     1  UNL1        0.1869
     17 C          62.5025   79.0936   13.0149 C.3     1  UNL1        0.0417
     18 O          63.3022   80.3796   10.9038 O.3     1  UNL1       -0.3758
     19 H          63.1485   79.4989   10.5273 H       1  UNL1        0.2110
     20 N          61.8877   90.8068   10.5164 N.pl3   1  UNL1       -0.2806
     21 H          61.2545   91.4415   10.1095 H       1  UNL1        0.1551
     22 C          63.0993   91.3158   11.2394 C.ar    1  UNL1        0.2208
     23 N          63.1629   91.2478   12.7365 N.ar    1  UNL1       -0.2111
     24 C          64.3745   91.7568   13.4596 C.ar    1  UNL1        0.1147
     25 C          65.5226   92.3338   12.6856 C.ar    1  UNL1        0.0946
     26 CL         66.7342   92.8427   13.4087 Cl      1  UNL1       -0.0790
     27 C          65.4590   92.4018   11.1884 C.ar    1  UNL1        0.0992
     28 N          64.2473   91.8928   10.4654 N.ar    1  UNL1       -0.2126
     29 C          66.6070   92.9787   10.4144 C.ar    1  UNL1        0.0572
     30 C          67.9243   92.3080   10.1595 C.ar    1  UNL1        0.1235
     31 N          68.7707   93.2425    9.3469 N.ar    1  UNL1       -0.1634
     32 N          67.9766   94.4908    9.0996 N.ar    1  UNL1       -0.2281
     33 C          68.2984   95.7548    8.3589 C.ar    1  UNL1        0.1004
     34 C          67.2829   96.8558    8.2780 C.ar    1  UNL1        0.0207
     35 C          65.9457   96.6928    8.9377 C.ar    1  UNL1        0.0031
     36 C          65.6239   95.4288    9.6784 C.ar    1  UNL1        0.0193
     37 C          66.6393   94.3278    9.7593 C.ar    1  UNL1        0.0858
@<TRIPOS>BOND
     1     1     2    1
     2     2     3   ar
     3     3     4   ar
     4     4     8    1
     5     8     9    1
     6     9    10    1
     7    10    11    1
     8    11    12   am
     9    12    13    2
    10    12    16    1
    11    16    17    1
    12    16    18    1
    13    11    14    1
    14    14    15    1
    15     4     5   ar
    16     5     6    1
    17     5     7   ar
    18     7    20    1
    19    20    22    1
    20    22    23   ar
    21    23    24   ar
    22    24    25   ar
    23    25    26    1
    24    25    27   ar
    25    27    29    1
    26    29    30   ar
    27    30    31   ar
    28    31    32   ar
    29    32    33   ar
    30    33    34   ar
    31    34    35   ar
    32    35    36   ar
    33    36    37   ar
    34    27    28   ar
    35     7     2   ar
    36    28    22   ar
    37    15     8    1
    38    37    29   ar
    39    37    32   ar
    40    18    19    1
    41    20    21    1
@<TRIPOS>MOLECULE
*****
 37 41 0 0 0
SMALL
GASTEIGER

@<TRIPOS>ATOM
      1 C          59.7497   90.1023    8.6832 C.3     1  UNL1        0.0553
      2 C          60.8561   89.9162    9.6789 C.ar    1  UNL1        0.0935
      3 N          61.6680   91.0087   10.3091 N.ar    1  UNL1       -0.1727
      4 N          62.6586   90.3727   11.2389 N.ar    1  UNL1       -0.2558
      5 C          62.4588   88.8871   11.1833 C.ar    1  UNL1        0.0704
      6 C          63.2364   87.8634   11.9560 C.3     1  UNL1        0.0531
      7 C          61.3448   88.6049   10.2191 C.ar    1  UNL1        0.0792
      8 C          63.6711   91.0953   12.0771 C.3     1  UNL1        0.1083
      9 C          63.8877   90.6918   13.5054 C.3     1  UNL1        0.0459
     10 C          64.9002   91.4145   14.3437 C.3     1  UNL1        0.0955
     11 N          65.6961   92.5407   13.7534 N.am    1  UNL1       -0.2775
     12 C          66.7086   93.2633   14.5917 C.2     1  UNL1        0.2525
     13 O          67.5045   94.3895   14.0015 O.2     1  UNL1       -0.2723
     14 C          65.4795   92.9442   12.3250 C.3     1  UNL1        0.0955
     15 C          64.4669   92.2214   11.4869 C.3     1  UNL1        0.0459
     16 C          66.9252   92.8598   16.0200 C.3     1  UNL1        0.1869
     17 C          68.2655   92.3502   16.4604 C.3     1  UNL1        0.0417
     18 O          65.8015   92.9660   17.0081 O.3     1  UNL1       -0.3758
     19 H          66.1074   92.6674   17.8788 H       1  UNL1        0.2110
     20 N          60.8129   87.2496    9.8585 N.pl3   1  UNL1       -0.2806
     21 H          59.8610   87.1384    9.6330 H       1  UNL1        0.1551
     22 C          61.7311   86.0636    9.8416 C.ar    1  UNL1        0.2208
     23 N          62.2876   85.5645    8.5411 N.ar    1  UNL1       -0.2111
     24 C          63.2058   84.3785    8.5241 C.ar    1  UNL1        0.1147
     25 C          63.5676   83.6917    9.8076 C.ar    1  UNL1        0.0946
     26 CL         64.4858   82.5057    9.7907 Cl      1  UNL1       -0.0790
     27 C          63.0111   84.1908   11.1082 C.ar    1  UNL1        0.0992
     28 N          62.0929   85.3768   11.1251 N.ar    1  UNL1       -0.2126
     29 C          63.3728   83.5040   12.3917 C.ar    1  UNL1        0.0572
     30 C          64.0713   84.1319   13.5612 C.ar    1  UNL1        0.1235
     31 N          64.2298   83.0846   14.6233 N.ar    1  UNL1       -0.1634
     32 N          63.6293   81.8094   14.1101 N.ar    1  UNL1       -0.2281
     33 C          63.4963   80.4457   14.7206 C.ar    1  UNL1        0.1004
     34 C          62.8337   79.3413   13.9518 C.ar    1  UNL1        0.0207
     35 C          62.3041   79.6005   12.5725 C.ar    1  UNL1        0.0031
     36 C          62.4370   80.9642   11.9621 C.ar    1  UNL1        0.0193
     37 C          63.0996   82.0686   12.7309 C.ar    1  UNL1        0.0858
@<TRIPOS>BOND
     1     1     2    1
     2     2     3   ar
     3     3     4   ar
     4     4     8    1
     5     8     9    1
     6     9    10    1
     7    10    11    1
     8    11    12   am
     9    12    13    2
    10    12    16    1
    11    16    17    1
    12    16    18    1
    13    11    14    1
    14    14    15    1
    15     4     5   ar
    16     5     6    1
    17     5     7   ar
    18     7    20    1
    19    20    22    1
    20    22    23   ar
    21    23    24   ar
    22    24    25   ar
    23    25    26    1
    24    25    27   ar
    25    27    29    1
    26    29    30   ar
    27    30    31   ar
    28    31    32   ar
    29    32    33   ar
    30    33    34   ar
    31    34    35   ar
    32    35    36   ar
    33    36    37   ar
    34    27    28   ar
    35     7     2   ar
    36    28    22   ar
    37    15     8    1
    38    37    29   ar
    39    37    32   ar
    40    18    19    1
    41    20    21    1
