@<TRIPOS>MOLECULE
*****
 38 42 0 0 0
SMALL
GASTEIGER

@<TRIPOS>ATOM
      1 C          63.5604   90.6530   13.4635 C.ar    1  UNL1        0.0576
      2 C          62.6108   89.9774   12.5191 C.ar    1  UNL1        0.0239
      3 C          62.6548   90.2976   11.0544 C.ar    1  UNL1        0.0874
      4 N          63.6485   91.2936   10.5340 N.ar    1  UNL1       -0.2305
      5 C          64.5981   91.9692   11.4783 C.ar    1  UNL1        0.1319
      6 C          64.5541   91.6489   12.9431 C.ar    1  UNL1        0.0388
      7 C          61.7052   89.6220   10.1101 C.ar    1  UNL1        0.0743
      8 C          60.6594   90.3005    9.2759 C.ar    1  UNL1        0.1251
      9 N          59.9425   89.2472    8.4844 N.ar    1  UNL1       -0.1620
     10 N          60.5453   87.9176    8.8294 N.ar    1  UNL1       -0.2106
     11 C          60.2430   86.5260    8.3584 C.ar    1  UNL1        0.1036
     12 C          61.0301   85.3660    8.8922 C.ar    1  UNL1        0.0404
     13 C          62.1195   85.5976    9.8969 C.ar    1  UNL1        0.0905
     14 N          62.4218   86.9893   10.3679 N.ar    1  UNL1       -0.2259
     15 C          61.6347   88.1493    9.8341 C.ar    1  UNL1        0.1667
     16 C          62.9065   84.4376   10.4307 C.ar    1  UNL1        0.0472
     17 C          63.9304   83.6441    9.6744 C.ar    1  UNL1        0.0085
     18 C          64.4646   82.5835   10.5907 C.ar    1  UNL1        0.0075
     19 C          63.7709   82.7215   11.9135 C.ar    1  UNL1        0.0355
     20 S          62.8080   83.8674   11.8146 S.2     1  UNL1       -0.0849
     21 N          63.1649   88.9472   15.3828 N.am    1  UNL1       -0.2995
     22 C          63.5163   90.3328   14.9282 C.2     1  UNL1        0.2460
     23 O          63.8237   91.3981   15.9384 O.2     1  UNL1       -0.2701
     24 H          62.9631   88.2480   14.7198 H       1  UNL1        0.1498
     25 C          63.1208   88.6270   16.8475 C.3     1  UNL1        0.1056
     26 C          62.9896   87.2029   17.3003 C.3     1  UNL1        0.0772
     27 C          62.6446   86.8986   18.7280 C.3     1  UNL1        0.0191
     28 N          63.2035   86.0832   16.3253 N.3     1  UNL1       -0.2724
     29 C          62.5323   83.6931   15.5594 C.3     1  UNL1        0.0188
     30 C          62.1657   85.0107   16.1756 C.3     1  UNL1        0.0721
     31 C          64.4553   86.0361   15.5001 C.3     1  UNL1        0.0721
     32 C          64.3847   86.2525   14.0175 C.3     1  UNL1        0.0188
     33 N          65.5918   92.9650   10.9579 N.pl3   1  UNL1       -0.2881
     34 C          65.7158   94.4594   10.9971 C.3     1  UNL1        0.1234
     35 C          66.9969   94.3735   10.2218 C.3     1  UNL1        0.1547
     36 C          66.8729   92.8792   10.1825 C.3     1  UNL1        0.1234
     37 O          67.9906   95.3694    9.7013 O.3     1  UNL1       -0.3501
     38 C          67.6168   96.2805    8.5699 C.3     1  UNL1        0.1741
@<TRIPOS>BOND
     1    29    30    1
     2    30    28    1
     3    28    31    1
     4    31    32    1
     5    28    26    1
     6    26    27    1
     7    26    25    1
     8    25    21    1
     9    21    22   am
    10    22    23    2
    11    22     1    1
    12     1     2   ar
    13     2     3   ar
    14     3     7    1
    15     7     8   ar
    16     8     9   ar
    17     9    10   ar
    18    10    11   ar
    19    11    12   ar
    20    12    13   ar
    21    13    16    1
    22    16    17   ar
    23    17    18   ar
    24    18    19   ar
    25    19    20   ar
    26    13    14   ar
    27    14    15   ar
    28     3     4   ar
    29     4     5   ar
    30     5    33    1
    31    33    34    1
    32    34    35    1
    33    35    37    1
    34    37    38    1
    35    35    36    1
    36     5     6   ar
    37     6     1   ar
    38    15     7   ar
    39    36    33    1
    40    15    10   ar
    41    20    16   ar
    42    21    24    1
@<TRIPOS>MOLECULE
*****
 38 42 0 0 0
SMALL
GASTEIGER

@<TRIPOS>ATOM
      1 C          63.4046   86.5422   13.1227 C.ar    1  UNL1        0.0576
      2 C          63.9472   87.7107   13.8909 C.ar    1  UNL1        0.0239
      3 C          63.6177   89.1093   13.4607 C.ar    1  UNL1        0.0874
      4 N          62.7455   89.3395   12.2621 N.ar    1  UNL1       -0.2305
      5 C          62.2029   88.1710   11.4939 C.ar    1  UNL1        0.1319
      6 C          62.5325   86.7723   11.9242 C.ar    1  UNL1        0.0388
      7 C          64.1603   90.2779   14.2289 C.ar    1  UNL1        0.0743
      8 C          63.8794   90.5939   15.6681 C.ar    1  UNL1        0.1251
      9 N          64.6245   91.8468   16.0215 N.ar    1  UNL1       -0.1620
     10 N          65.3659   92.3051   14.8007 N.ar    1  UNL1       -0.2106
     11 C          66.2652   93.4802   14.5548 C.ar    1  UNL1        0.1036
     12 C          66.8777   93.6855   13.2010 C.ar    1  UNL1        0.0404
     13 C          66.5908   92.7159   12.0931 C.ar    1  UNL1        0.0905
     14 N          65.6915   91.5408   12.3390 N.ar    1  UNL1       -0.2259
     15 C          65.0790   91.3355   13.6928 C.ar    1  UNL1        0.1667
     16 C          67.2032   92.9212   10.7393 C.ar    1  UNL1        0.0472
     17 C          68.1625   91.9927   10.0555 C.ar    1  UNL1        0.0085
     18 C          68.5161   92.5887    8.7252 C.ar    1  UNL1        0.0075
     19 C          67.7752   93.8857    8.5868 C.ar    1  UNL1        0.0355
     20 S          66.9638   94.0911    9.8316 S.2     1  UNL1       -0.0849
     21 N          62.6374   84.1365   13.7343 N.am    1  UNL1       -0.2995
     22 C          63.7341   85.1435   13.5530 C.2     1  UNL1        0.2460
     23 O          65.1605   84.7518   13.8019 O.2     1  UNL1       -0.2701
     24 H          61.7012   84.3936   13.5709 H       1  UNL1        0.1498
     25 C          62.9669   82.7379   14.1646 C.3     1  UNL1        0.1056
     26 C          62.4564   81.5699   13.3737 C.3     1  UNL1        0.0772
     27 C          61.2473   80.8168   13.8438 C.3     1  UNL1        0.0191
     28 N          63.1549   81.1551   12.1128 N.3     1  UNL1       -0.2724
     29 C          62.8456   79.7286    9.9636 C.3     1  UNL1        0.0188
     30 C          62.8090   79.8506   11.4582 C.3     1  UNL1        0.0721
     31 C          64.1993   82.0448   11.5065 C.3     1  UNL1        0.0721
     32 C          63.8060   83.0849   10.4997 C.3     1  UNL1        0.0188
     33 N          61.3308   88.4012   10.2954 N.pl3   1  UNL1       -0.2881
     34 C          60.9619   87.5996    9.0824 C.3     1  UNL1        0.1234
     35 C          60.0975   88.7266    8.6004 C.3     1  UNL1        0.1547
     36 C          60.4664   89.5283    9.8134 C.3     1  UNL1        0.1234
     37 O          59.2254   88.9569    7.4019 O.3     1  UNL1       -0.3501
     38 C          59.6854   89.8693    6.3039 C.3     1  UNL1        0.1741
@<TRIPOS>BOND
     1    29    30    1
     2    30    28    1
     3    28    31    1
     4    31    32    1
     5    28    26    1
     6    26    27    1
     7    26    25    1
     8    25    21    1
     9    21    22   am
    10    22    23    2
    11    22     1    1
    12     1     2   ar
    13     2     3   ar
    14     3     7    1
    15     7     8   ar
    16     8     9   ar
    17     9    10   ar
    18    10    11   ar
    19    11    12   ar
    20    12    13   ar
    21    13    16    1
    22    16    17   ar
    23    17    18   ar
    24    18    19   ar
    25    19    20   ar
    26    13    14   ar
    27    14    15   ar
    28     3     4   ar
    29     4     5   ar
    30     5    33    1
    31    33    34    1
    32    34    35    1
    33    35    37    1
    34    37    38    1
    35    35    36    1
    36     5     6   ar
    37     6     1   ar
    38    15     7   ar
    39    36    33    1
    40    15    10   ar
    41    20    16   ar
    42    21    24    1
@<TRIPOS>MOLECULE
*****
 38 42 0 0 0
SMALL
GASTEIGER

@<TRIPOS>ATOM
      1 C          64.4053   91.1556   13.0890 C.ar    1  UNL1        0.0576
      2 C          64.4034   90.1177   14.1719 C.ar    1  UNL1        0.0239
      3 C          63.5154   88.9144   14.0561 C.ar    1  UNL1        0.0874
      4 N          62.6291   88.7490   12.8572 N.ar    1  UNL1       -0.2305
      5 C          62.6310   89.7869   11.7743 C.ar    1  UNL1        0.1319
      6 C          63.5191   90.9902   11.8901 C.ar    1  UNL1        0.0388
      7 C          63.5136   87.8765   15.1391 C.ar    1  UNL1        0.0743
      8 C          63.4744   88.1423   16.6148 C.ar    1  UNL1        0.1251
      9 N          63.4872   86.8207   17.3243 N.ar    1  UNL1       -0.1620
     10 N          63.5343   85.7382   16.2869 N.ar    1  UNL1       -0.2106
     11 C          63.5644   84.2426   16.3976 C.ar    1  UNL1        0.1036
     12 C          63.6108   83.3996   15.1578 C.ar    1  UNL1        0.0404
     13 C          63.6271   84.0521   13.8073 C.ar    1  UNL1        0.0905
     14 N          63.5970   85.5477   13.6966 N.ar    1  UNL1       -0.2259
     15 C          63.5506   86.3908   14.9364 C.ar    1  UNL1        0.1667
     16 C          63.6736   83.2091   12.5675 C.ar    1  UNL1        0.0472
     17 C          64.4041   83.5434   11.3008 C.ar    1  UNL1        0.0085
     18 C          64.1797   82.4247   10.3271 C.ar    1  UNL1        0.0075
     19 C          63.3104   81.3989   10.9921 C.ar    1  UNL1        0.0355
     20 S          62.9976   81.8837   12.3767 S.2     1  UNL1       -0.0849
     21 N          65.5330   93.2321   12.0091 N.am    1  UNL1       -0.2995
     22 C          65.2934   92.3588   13.2049 C.2     1  UNL1        0.2460
     23 O          65.9419   92.6888   14.5165 O.2     1  UNL1       -0.2701
     24 H          65.1073   93.0156   11.1482 H       1  UNL1        0.1498
     25 C          66.4211   94.4354   12.1250 C.3     1  UNL1        0.1056
     26 C          66.4098   95.4822   11.0506 C.3     1  UNL1        0.0772
     27 C          65.7841   96.8199   11.3132 C.3     1  UNL1        0.0191
     28 N          67.0243   95.1911    9.7135 N.3     1  UNL1       -0.2724
     29 C          68.5456   93.1053    9.4229 C.3     1  UNL1        0.0188
     30 C          67.2107   93.7714    9.2669 C.3     1  UNL1        0.0721
     31 C          67.4524   96.3199    8.8231 C.3     1  UNL1        0.0721
     32 C          66.5148   96.8477    7.7780 C.3     1  UNL1        0.0188
     33 N          61.7447   89.6215   10.5755 N.pl3   1  UNL1       -0.2881
     34 C          60.4595   90.2414   10.1130 C.3     1  UNL1        0.1234
     35 C          60.4913   89.3875    8.8801 C.3     1  UNL1        0.1547
     36 C          61.7765   88.7676    9.3426 C.3     1  UNL1        0.1234
     37 O          59.6050   89.2221    7.6813 O.3     1  UNL1       -0.3501
     38 C          58.9176   87.9124    7.4320 C.3     1  UNL1        0.1741
@<TRIPOS>BOND
     1    29    30    1
     2    30    28    1
     3    28    31    1
     4    31    32    1
     5    28    26    1
     6    26    27    1
     7    26    25    1
     8    25    21    1
     9    21    22   am
    10    22    23    2
    11    22     1    1
    12     1     2   ar
    13     2     3   ar
    14     3     7    1
    15     7     8   ar
    16     8     9   ar
    17     9    10   ar
    18    10    11   ar
    19    11    12   ar
    20    12    13   ar
    21    13    16    1
    22    16    17   ar
    23    17    18   ar
    24    18    19   ar
    25    19    20   ar
    26    13    14   ar
    27    14    15   ar
    28     3     4   ar
    29     4     5   ar
    30     5    33    1
    31    33    34    1
    32    34    35    1
    33    35    37    1
    34    37    38    1
    35    35    36    1
    36     5     6   ar
    37     6     1   ar
    38    15     7   ar
    39    36    33    1
    40    15    10   ar
    41    20    16   ar
    42    21    24    1
@<TRIPOS>MOLECULE
*****
 38 42 0 0 0
SMALL
GASTEIGER

@<TRIPOS>ATOM
      1 C          63.4791   86.3860   12.6704 C.ar    1  UNL1        0.0576
      2 C          63.9657   87.5150   13.5299 C.ar    1  UNL1        0.0239
      3 C          63.5291   88.9204   13.2400 C.ar    1  UNL1        0.0874
      4 N          62.6059   89.1969   12.0904 N.ar    1  UNL1       -0.2305
      5 C          62.1194   88.0679   11.2309 C.ar    1  UNL1        0.1319
      6 C          62.5560   86.6625   11.5209 C.ar    1  UNL1        0.0388
      7 C          64.0156   90.0494   14.0994 C.ar    1  UNL1        0.0743
      8 C          63.6896   90.2580   15.5486 C.ar    1  UNL1        0.1251
      9 N          64.3860   91.5055   16.0055 N.ar    1  UNL1       -0.1620
     10 N          65.1425   92.0679   14.8386 N.ar    1  UNL1       -0.2106
     11 C          66.0102   93.2831   14.6966 C.ar    1  UNL1        0.1036
     12 C          66.6490   93.5985   13.3765 C.ar    1  UNL1        0.0404
     13 C          66.4200   92.6985   12.1985 C.ar    1  UNL1        0.0905
     14 N          65.5523   91.4833   12.3405 N.ar    1  UNL1       -0.2259
     15 C          64.9136   91.1679   13.6606 C.ar    1  UNL1        0.1667
     16 C          67.0588   93.0139   10.8784 C.ar    1  UNL1        0.0472
     17 C          66.8999   94.2887   10.1042 C.ar    1  UNL1        0.0085
     18 C          67.7115   94.1725    8.8481 C.ar    1  UNL1        0.0075
     19 C          68.3721   92.8258    8.8461 C.ar    1  UNL1        0.0355
     20 S          67.9687   92.1097   10.1009 S.2     1  UNL1       -0.0849
     21 N          63.4963   83.8625   12.0529 N.am    1  UNL1       -0.2995
     22 C          63.9158   84.9806   12.9605 C.2     1  UNL1        0.2460
     23 O          64.7719   84.6933   14.1582 O.2     1  UNL1       -0.2701
     24 H          62.9344   84.0510   11.2668 H       1  UNL1        0.1498
     25 C          63.9329   82.4571   12.3429 C.3     1  UNL1        0.1056
     26 C          62.9188   81.4210   12.7281 C.3     1  UNL1        0.0772
     27 C          62.8610   80.1170   11.9890 C.3     1  UNL1        0.0191
     28 N          61.9625   81.6890   13.8522 N.3     1  UNL1       -0.2724
     29 C          61.9735   83.7659   15.4129 C.3     1  UNL1        0.0188
     30 C          62.4415   82.3764   15.0964 C.3     1  UNL1        0.0721
     31 C          60.5274   81.2696   13.7322 C.3     1  UNL1        0.0721
     32 C          60.0516   80.0204   14.4127 C.3     1  UNL1        0.0188
     33 N          61.1963   88.3444   10.0814 N.pl3   1  UNL1       -0.2881
     34 C          60.7678   87.5874    8.8593 C.3     1  UNL1        0.1234
     35 C          59.8908   88.7354    8.4557 C.3     1  UNL1        0.1547
     36 C          60.3192   89.4923    9.6778 C.3     1  UNL1        0.1234
     37 O          58.9677   89.0119    7.3062 O.3     1  UNL1       -0.3501
     38 C          59.4082   89.9124    6.1905 C.3     1  UNL1        0.1741
@<TRIPOS>BOND
     1    29    30    1
     2    30    28    1
     3    28    31    1
     4    31    32    1
     5    28    26    1
     6    26    27    1
     7    26    25    1
     8    25    21    1
     9    21    22   am
    10    22    23    2
    11    22     1    1
    12     1     2   ar
    13     2     3   ar
    14     3     7    1
    15     7     8   ar
    16     8     9   ar
    17     9    10   ar
    18    10    11   ar
    19    11    12   ar
    20    12    13   ar
    21    13    16    1
    22    16    17   ar
    23    17    18   ar
    24    18    19   ar
    25    19    20   ar
    26    13    14   ar
    27    14    15   ar
    28     3     4   ar
    29     4     5   ar
    30     5    33    1
    31    33    34    1
    32    34    35    1
    33    35    37    1
    34    37    38    1
    35    35    36    1
    36     5     6   ar
    37     6     1   ar
    38    15     7   ar
    39    36    33    1
    40    15    10   ar
    41    20    16   ar
    42    21    24    1
@<TRIPOS>MOLECULE
*****
 38 42 0 0 0
SMALL
GASTEIGER

@<TRIPOS>ATOM
      1 C          61.2223   88.9083   10.5513 C.ar    1  UNL1        0.0576
      2 C          61.8758   89.8106   11.5556 C.ar    1  UNL1        0.0239
      3 C          62.8508   89.2479   12.5469 C.ar    1  UNL1        0.0874
      4 N          63.1723   87.7827   12.5338 N.ar    1  UNL1       -0.2305
      5 C          62.5188   86.8804   11.5294 C.ar    1  UNL1        0.1319
      6 C          61.5437   87.4432   10.5382 C.ar    1  UNL1        0.0388
      7 C          63.5044   90.1502   13.5512 C.ar    1  UNL1        0.0743
      8 C          63.2133   90.1894   15.0222 C.ar    1  UNL1        0.1251
      9 N          64.0927   91.2351   15.6410 N.ar    1  UNL1       -0.1620
     10 N          64.9274   91.8422   14.5525 N.ar    1  UNL1       -0.2106
     11 C          65.9715   92.9189   14.5706 C.ar    1  UNL1        0.1036
     12 C          66.6521   93.3251   13.2971 C.ar    1  UNL1        0.0404
     13 C          66.2885   92.6546   12.0055 C.ar    1  UNL1        0.0905
     14 N          65.2443   91.5779   11.9874 N.ar    1  UNL1       -0.2259
     15 C          64.5638   91.1717   13.2609 C.ar    1  UNL1        0.1667
     16 C          66.9690   93.0609   10.7319 C.ar    1  UNL1        0.0472
     17 C          67.9757   92.2488    9.9724 C.ar    1  UNL1        0.0085
     18 C          68.3912   93.0365    8.7654 C.ar    1  UNL1        0.0075
     19 C          67.6412   94.3355    8.7790 C.ar    1  UNL1        0.0355
     20 S          66.7622   94.3505    9.9944 S.2     1  UNL1       -0.0849
     21 N          60.0738   88.8143    8.2227 N.am    1  UNL1       -0.2995
     22 C          60.2472   89.4710    9.5600 C.2     1  UNL1        0.2460
     23 O          59.4455   90.6907    9.9061 O.2     1  UNL1       -0.2701
     24 H          60.6000   88.0138    7.9955 H       1  UNL1        0.1498
     25 C          59.0988   89.3771    7.2315 C.3     1  UNL1        0.1056
     26 C          59.5885   90.2315    6.0999 C.3     1  UNL1        0.0772
     27 C          61.0328   90.1877    5.6976 C.3     1  UNL1        0.0191
     28 N          58.6337   91.1297    5.3707 N.3     1  UNL1       -0.2724
     29 C          56.1672   91.7611    4.8539 C.3     1  UNL1        0.0188
     30 C          57.1948   90.7326    5.2230 C.3     1  UNL1        0.0721
     31 C          59.1179   92.4249    4.7893 C.3     1  UNL1        0.0721
     32 C          59.4781   92.5062    3.3355 C.3     1  UNL1        0.0188
     33 N          62.8403   85.4154   11.5164 N.pl3   1  UNL1       -0.2881
     34 C          63.0468   84.3654   12.5675 C.3     1  UNL1        0.1234
     35 C          63.2950   83.3434   11.4980 C.3     1  UNL1        0.1547
     36 C          63.0885   84.3934   10.4469 C.3     1  UNL1        0.1234
     37 O          63.6165   81.8784   11.4850 O.3     1  UNL1       -0.3501
     38 C          62.7957   80.9232   12.2998 C.3     1  UNL1        0.1741
@<TRIPOS>BOND
     1    29    30    1
     2    30    28    1
     3    28    31    1
     4    31    32    1
     5    28    26    1
     6    26    27    1
     7    26    25    1
     8    25    21    1
     9    21    22   am
    10    22    23    2
    11    22     1    1
    12     1     2   ar
    13     2     3   ar
    14     3     7    1
    15     7     8   ar
    16     8     9   ar
    17     9    10   ar
    18    10    11   ar
    19    11    12   ar
    20    12    13   ar
    21    13    16    1
    22    16    17   ar
    23    17    18   ar
    24    18    19   ar
    25    19    20   ar
    26    13    14   ar
    27    14    15   ar
    28     3     4   ar
    29     4     5   ar
    30     5    33    1
    31    33    34    1
    32    34    35    1
    33    35    37    1
    34    37    38    1
    35    35    36    1
    36     5     6   ar
    37     6     1   ar
    38    15     7   ar
    39    36    33    1
    40    15    10   ar
    41    20    16   ar
    42    21    24    1
@<TRIPOS>MOLECULE
*****
 38 42 0 0 0
SMALL
GASTEIGER

@<TRIPOS>ATOM
      1 C          62.4541   86.4378   10.8819 C.ar    1  UNL1        0.0576
      2 C          62.9608   87.3708   11.9415 C.ar    1  UNL1        0.0239
      3 C          62.6302   88.8323   11.8744 C.ar    1  UNL1        0.0874
      4 N          61.7928   89.3609   10.7477 N.ar    1  UNL1       -0.2305
      5 C          61.2861   88.4278    9.6881 C.ar    1  UNL1        0.1319
      6 C          61.6168   86.9663    9.7552 C.ar    1  UNL1        0.0388
      7 C          63.1369   89.7653   12.9340 C.ar    1  UNL1        0.0743
      8 C          62.6744   89.8143   14.3601 C.ar    1  UNL1        0.1251
      9 N          63.4466   90.8924   15.0611 N.ar    1  UNL1       -0.1620
     10 N          64.3864   91.5097   14.0682 N.ar    1  UNL1       -0.2106
     11 C          65.3917   92.6161   14.1912 C.ar    1  UNL1        0.1036
     12 C          66.2056   93.0259   12.9997 C.ar    1  UNL1        0.0404
     13 C          66.0141   92.3294   11.6852 C.ar    1  UNL1        0.0905
     14 N          65.0088   91.2230   11.5621 N.ar    1  UNL1       -0.2259
     15 C          64.1949   90.8131   12.7536 C.ar    1  UNL1        0.1667
     16 C          66.8280   92.7392   10.4936 C.ar    1  UNL1        0.0472
     17 C          67.9444   91.9511    9.8752 C.ar    1  UNL1        0.0085
     18 C          68.4747   92.7339    8.7107 C.ar    1  UNL1        0.0075
     19 C          67.6860   94.0058    8.6095 C.ar    1  UNL1        0.0355
     20 S          66.6683   94.0091    9.7114 S.2     1  UNL1       -0.0849
     21 N          62.3652   84.1662   12.1396 N.am    1  UNL1       -0.2995
     22 C          62.7848   84.9762   10.9490 C.2     1  UNL1        0.2460
     23 O          63.5351   84.3247    9.8254 O.2     1  UNL1       -0.2701
     24 H          61.8727   84.5938   12.8771 H       1  UNL1        0.1498
     25 C          62.6959   82.7046   12.2067 C.3     1  UNL1        0.1056
     26 C          63.0377   82.0726   13.5235 C.3     1  UNL1        0.0772
     27 C          63.0269   80.5793   13.6640 C.3     1  UNL1        0.0191
     28 N          63.3904   82.9341   14.6998 N.3     1  UNL1       -0.2724
     29 C          62.2642   84.8126   16.0972 C.3     1  UNL1        0.0188
     30 C          62.3190   83.3821   15.6492 C.3     1  UNL1        0.0721
     31 C          64.8143   83.3475   14.9265 C.3     1  UNL1        0.0721
     32 C          65.3477   84.5889   14.2751 C.3     1  UNL1        0.0188
     33 N          60.4488   88.9564    8.5614 N.pl3   1  UNL1       -0.2881
     34 C          60.1686   90.3173    7.9960 C.3     1  UNL1        0.1234
     35 C          59.2646   89.7042    6.9681 C.3     1  UNL1        0.1547
     36 C          59.5448   88.3433    7.5334 C.3     1  UNL1        0.1234
     37 O          58.4272   90.2328    5.8414 O.3     1  UNL1       -0.3501
     38 C          58.8850   91.4321    5.0655 C.3     1  UNL1        0.1741
@<TRIPOS>BOND
     1    29    30    1
     2    30    28    1
     3    28    31    1
     4    31    32    1
     5    28    26    1
     6    26    27    1
     7    26    25    1
     8    25    21    1
     9    21    22   am
    10    22    23    2
    11    22     1    1
    12     1     2   ar
    13     2     3   ar
    14     3     7    1
    15     7     8   ar
    16     8     9   ar
    17     9    10   ar
    18    10    11   ar
    19    11    12   ar
    20    12    13   ar
    21    13    16    1
    22    16    17   ar
    23    17    18   ar
    24    18    19   ar
    25    19    20   ar
    26    13    14   ar
    27    14    15   ar
    28     3     4   ar
    29     4     5   ar
    30     5    33    1
    31    33    34    1
    32    34    35    1
    33    35    37    1
    34    37    38    1
    35    35    36    1
    36     5     6   ar
    37     6     1   ar
    38    15     7   ar
    39    36    33    1
    40    15    10   ar
    41    20    16   ar
    42    21    24    1
@<TRIPOS>MOLECULE
*****
 38 42 0 0 0
SMALL
GASTEIGER

@<TRIPOS>ATOM
      1 C          62.3126   88.3674   11.7630 C.ar    1  UNL1        0.0576
      2 C          62.8947   89.5309   12.5096 C.ar    1  UNL1        0.0239
      3 C          63.7605   89.2936   13.7113 C.ar    1  UNL1        0.0874
      4 N          64.0441   87.8926   14.1664 N.ar    1  UNL1       -0.2305
      5 C          63.4619   86.7291   13.4198 C.ar    1  UNL1        0.1319
      6 C          62.5962   86.9665   12.2181 C.ar    1  UNL1        0.0388
      7 C          64.3426   90.4570   14.4579 C.ar    1  UNL1        0.0743
      8 C          64.1264   90.7709   15.9086 C.ar    1  UNL1        0.1251
      9 N          64.8933   92.0188   16.2322 N.ar    1  UNL1       -0.1620
     10 N          65.5836   92.4760   14.9814 N.ar    1  UNL1       -0.2106
     11 C          66.4781   93.6466   14.6993 C.ar    1  UNL1        0.1036
     12 C          67.0323   93.8520   13.3207 C.ar    1  UNL1        0.0404
     13 C          66.6919   92.8868   12.2240 C.ar    1  UNL1        0.0905
     14 N          65.7974   91.7162   12.5061 N.ar    1  UNL1       -0.2259
     15 C          65.2433   91.5108   13.8848 C.ar    1  UNL1        0.1667
     16 C          67.2461   93.0922   10.8454 C.ar    1  UNL1        0.0472
     17 C          68.1528   92.1502   10.1102 C.ar    1  UNL1        0.0085
     18 C          68.4580   92.7514    8.7703 C.ar    1  UNL1        0.0075
     19 C          67.7398   94.0650    8.6773 C.ar    1  UNL1        0.0355
     20 S          66.9908   94.2756    9.9598 S.2     1  UNL1       -0.0849
     21 N          60.2689   87.7142   10.2978 N.am    1  UNL1       -0.2995
     22 C          61.4468   88.6048   10.5613 C.2     1  UNL1        0.2460
     23 O          61.7588   89.7328    9.6231 O.2     1  UNL1       -0.2701
     24 H          60.0641   86.9739   10.9135 H       1  UNL1        0.1498
     25 C          59.4031   87.9516    9.0961 C.3     1  UNL1        0.1056
     26 C          59.8401   87.4600    7.7479 C.3     1  UNL1        0.0772
     27 C          59.3120   88.1120    6.5045 C.3     1  UNL1        0.0191
     28 N          60.8052   86.3165    7.6432 N.3     1  UNL1       -0.2724
     29 C          61.4271   84.4172    5.9832 C.3     1  UNL1        0.0188
     30 C          60.4255   85.0822    6.8802 C.3     1  UNL1        0.0721
     31 C          62.1500   86.4074    8.3015 C.3     1  UNL1        0.0721
     32 C          62.7018   85.2279    9.0460 C.3     1  UNL1        0.0188
     33 N          63.7456   85.3283   13.8749 N.pl3   1  UNL1       -0.2881
     34 C          63.6862   84.6075   15.1891 C.3     1  UNL1        0.1234
     35 C          64.1468   83.3472   14.5187 C.3     1  UNL1        0.1547
     36 C          64.2061   84.0680   13.2046 C.3     1  UNL1        0.1234
     37 O          64.4304   81.9464   14.9738 O.3     1  UNL1       -0.3501
     38 C          63.8584   80.7826   14.2200 C.3     1  UNL1        0.1741
@<TRIPOS>BOND
     1    29    30    1
     2    30    28    1
     3    28    31    1
     4    31    32    1
     5    28    26    1
     6    26    27    1
     7    26    25    1
     8    25    21    1
     9    21    22   am
    10    22    23    2
    11    22     1    1
    12     1     2   ar
    13     2     3   ar
    14     3     7    1
    15     7     8   ar
    16     8     9   ar
    17     9    10   ar
    18    10    11   ar
    19    11    12   ar
    20    12    13   ar
    21    13    16    1
    22    16    17   ar
    23    17    18   ar
    24    18    19   ar
    25    19    20   ar
    26    13    14   ar
    27    14    15   ar
    28     3     4   ar
    29     4     5   ar
    30     5    33    1
    31    33    34    1
    32    34    35    1
    33    35    37    1
    34    37    38    1
    35    35    36    1
    36     5     6   ar
    37     6     1   ar
    38    15     7   ar
    39    36    33    1
    40    15    10   ar
    41    20    16   ar
    42    21    24    1
