@<TRIPOS>MOLECULE
*****
 35 38 0 0 0
SMALL
GASTEIGER

@<TRIPOS>ATOM
      1 N          63.3022   90.5471   11.9500 N.am    1  UNL1       -0.2438
      2 C          63.9255   90.4616   13.3117 C.3     1  UNL1        0.1009
      3 C          65.1075   91.3205   13.6507 C.3     1  UNL1        0.0661
      4 C          65.6664   92.2649   12.6281 C.3     1  UNL1        0.1587
      5 O          65.0431   92.3504   11.2663 O.3     1  UNL1       -0.4375
      6 C          63.8611   91.4915   10.9273 C.2     1  UNL1        0.4051
      7 O          63.2378   91.5770    9.5656 O.2     1  UNL1       -0.2262
      8 C          66.5958   92.5407   13.7727 C.ar    1  UNL1        0.0138
      9 C          67.2359   91.4020   14.5101 C.ar    1  UNL1       -0.0010
     10 C          68.1654   91.6778   15.6548 C.ar    1  UNL1       -0.0002
     11 C          68.4547   93.0922   16.0619 C.ar    1  UNL1       -0.0000
     12 C          67.8146   94.2308   15.3245 C.ar    1  UNL1       -0.0002
     13 C          66.8851   93.9551   14.1799 C.ar    1  UNL1       -0.0010
     14 C          60.8227   90.3234   11.2070 C.3     1  UNL1        0.0265
     15 C          62.1201   89.6882   11.6109 C.3     1  UNL1        0.1011
     16 C          62.2355   88.1940   11.6759 C.ar    1  UNL1       -0.0042
     17 C          63.1763   87.5563   12.6546 C.ar    1  UNL1       -0.0027
     18 C          63.2917   86.0621   12.7195 C.ar    1  UNL1       -0.0003
     19 C          62.4661   85.2058   11.8057 C.ar    1  UNL1        0.0002
     20 C          61.5252   85.8435   10.8270 C.ar    1  UNL1       -0.0003
     21 C          61.4099   87.3377   10.7620 C.ar    1  UNL1       -0.0027
     22 C          62.5814   83.7116   11.8706 C.ar    1  UNL1        0.0062
     23 C          63.0446   82.9422   10.6692 C.ar    1  UNL1        0.0189
     24 C          63.1600   81.4480   10.7342 C.ar    1  UNL1        0.0784
     25 N          62.8121   80.7233   12.0006 N.ar    1  UNL1       -0.2922
     26 C          62.9274   79.2291   12.0655 C.3     1  UNL1        0.1336
     27 C          62.3489   81.4927   13.2020 C.ar    1  UNL1        0.2610
     28 O          62.0011   80.7680   14.4684 O.2     1  UNL1       -0.2670
     29 C          62.2336   82.9869   13.1370 C.ar    1  UNL1        0.0608
     30 C          66.5480   93.3051   12.0030 C.3     1  UNL1        0.0586
     31 C          67.2754   93.0030   10.7264 C.3     1  UNL1        0.0831
     32 C          67.9569   91.8427   11.3893 C.3     1  UNL1        0.0153
     33 C          66.5939   94.1632   10.0635 C.3     1  UNL1        0.0153
     34 C          68.0028   92.7008    9.4499 C.1     1  UNL1        0.0712
     35 N          68.7301   92.3986    8.1733 N.1     1  UNL1       -0.1959
@<TRIPOS>BOND
     1    15    14    1
     2    15    16    1
     3    16    17   ar
     4    17    18   ar
     5    18    19   ar
     6    19    22    1
     7    22    23   ar
     8    23    24   ar
     9    24    25   ar
    10    25    26    1
    11    25    27   ar
    12    27    28    2
    13    27    29   ar
    14    19    20   ar
    15    20    21   ar
    16    15     1    1
    17     1     2    1
    18     2     3    1
    19     3     4    1
    20     4    30    1
    21    30    31    1
    22    31    32    1
    23    31    33    1
    24    31    34    1
    25    34    35    3
    26     4     8    1
    27     8     9   ar
    28     9    10   ar
    29    10    11   ar
    30    11    12   ar
    31    12    13   ar
    32     4     5    1
    33     5     6    1
    34     6     7    2
    35    21    16   ar
    36     6     1   am
    37    29    22   ar
    38    13     8   ar
@<TRIPOS>MOLECULE
*****
 35 38 0 0 0
SMALL
GASTEIGER

@<TRIPOS>ATOM
      1 N          63.3857   90.5192   11.9291 N.am    1  UNL1       -0.2438
      2 C          63.9832   90.4578   13.3036 C.3     1  UNL1        0.1009
      3 C          65.1554   91.3267   13.6514 C.3     1  UNL1        0.0661
      4 C          65.7300   92.2571   12.6247 C.3     1  UNL1        0.1587
      5 O          65.1325   92.3186   11.2502 O.3     1  UNL1       -0.4375
      6 C          63.9604   91.4497   10.9024 C.2     1  UNL1        0.4051
      7 O          63.3628   91.5112    9.5279 O.2     1  UNL1       -0.2262
      8 C          66.6365   92.5547   13.7823 C.ar    1  UNL1        0.0138
      9 C          67.2512   91.4302   14.5618 C.ar    1  UNL1       -0.0010
     10 C          68.1576   91.7277   15.7194 C.ar    1  UNL1       -0.0002
     11 C          68.4493   93.1497   16.0973 C.ar    1  UNL1       -0.0000
     12 C          67.8345   94.2742   15.3178 C.ar    1  UNL1       -0.0002
     13 C          66.9281   93.9767   14.1602 C.ar    1  UNL1       -0.0010
     14 C          60.9594   90.2659   11.0353 C.3     1  UNL1        0.0265
     15 C          62.2135   89.6503   11.5813 C.3     1  UNL1        0.1011
     16 C          62.2955   88.1656   11.7795 C.ar    1  UNL1       -0.0042
     17 C          61.4226   87.2518   10.9716 C.ar    1  UNL1       -0.0027
     18 C          61.5046   85.7672   11.1698 C.ar    1  UNL1       -0.0003
     19 C          62.4596   85.1966   12.1760 C.ar    1  UNL1        0.0002
     20 C          63.3325   86.1104   12.9839 C.ar    1  UNL1       -0.0003
     21 C          63.2505   87.5950   12.7857 C.ar    1  UNL1       -0.0027
     22 C          62.5416   83.7119   12.3742 C.ar    1  UNL1        0.0062
     23 C          62.3799   83.1284   13.7465 C.ar    1  UNL1        0.0189
     24 C          62.4619   81.6438   13.9447 C.ar    1  UNL1        0.0784
     25 N          62.7056   80.7427   12.7706 N.ar    1  UNL1       -0.2922
     26 C          62.7876   79.2582   12.9687 C.3     1  UNL1        0.1336
     27 C          62.8673   81.3263   11.3982 C.ar    1  UNL1        0.2610
     28 O          63.1110   80.4252   10.2240 O.2     1  UNL1       -0.2670
     29 C          62.7853   82.8109   11.2000 C.ar    1  UNL1        0.0608
     30 C          66.6195   93.2909   12.0000 C.3     1  UNL1        0.0586
     31 C          67.3303   92.9904   10.7139 C.3     1  UNL1        0.0831
     32 C          67.9928   91.8078   11.3563 C.3     1  UNL1        0.0153
     33 C          66.6679   94.1729   10.0714 C.3     1  UNL1        0.0153
     34 C          68.0412   92.6897    9.4277 C.1     1  UNL1        0.0712
     35 N          68.7522   92.3892    8.1415 N.1     1  UNL1       -0.1959
@<TRIPOS>BOND
     1    15    14    1
     2    15    16    1
     3    16    17   ar
     4    17    18   ar
     5    18    19   ar
     6    19    22    1
     7    22    23   ar
     8    23    24   ar
     9    24    25   ar
    10    25    26    1
    11    25    27   ar
    12    27    28    2
    13    27    29   ar
    14    19    20   ar
    15    20    21   ar
    16    15     1    1
    17     1     2    1
    18     2     3    1
    19     3     4    1
    20     4    30    1
    21    30    31    1
    22    31    32    1
    23    31    33    1
    24    31    34    1
    25    34    35    3
    26     4     8    1
    27     8     9   ar
    28     9    10   ar
    29    10    11   ar
    30    11    12   ar
    31    12    13   ar
    32     4     5    1
    33     5     6    1
    34     6     7    2
    35    21    16   ar
    36     6     1   am
    37    29    22   ar
    38    13     8   ar
@<TRIPOS>MOLECULE
*****
 35 38 0 0 0
SMALL
GASTEIGER

@<TRIPOS>ATOM
      1 N          63.0857   91.0590   11.4372 N.am    1  UNL1       -0.2438
      2 C          63.6651   91.5893   10.1594 C.3     1  UNL1        0.1009
      3 C          64.8280   92.5360   10.1991 C.3     1  UNL1        0.0661
      4 C          65.4115   92.9523   11.5167 C.3     1  UNL1        0.1587
      5 O          64.8321   92.4220   12.7947 O.3     1  UNL1       -0.4375
      6 C          63.6692   91.4753   12.7550 C.2     1  UNL1        0.4051
      7 O          63.0898   90.9450   14.0328 O.2     1  UNL1       -0.2262
      8 C          66.3008   93.7198   10.5839 C.ar    1  UNL1        0.0138
      9 C          67.2621   92.9895    9.6935 C.ar    1  UNL1       -0.0010
     10 C          68.1514   93.7570    8.7607 C.ar    1  UNL1       -0.0002
     11 C          68.0794   95.2547    8.7183 C.ar    1  UNL1       -0.0000
     12 C          67.1181   95.9849    9.6087 C.ar    1  UNL1       -0.0002
     13 C          66.2288   95.2174   10.5415 C.ar    1  UNL1       -0.0010
     14 C          60.5521   90.6219   11.0638 C.3     1  UNL1        0.0265
     15 C          61.9228   90.1124   11.3975 C.3     1  UNL1        0.1011
     16 C          62.1308   88.6562   11.6915 C.ar    1  UNL1       -0.0042
     17 C          61.2358   87.6291   11.0639 C.ar    1  UNL1       -0.0027
     18 C          61.4437   86.1730   11.3579 C.ar    1  UNL1       -0.0003
     19 C          62.5467   85.7440   12.2796 C.ar    1  UNL1        0.0002
     20 C          63.4416   86.7711   12.9073 C.ar    1  UNL1       -0.0003
     21 C          63.2337   88.2272   12.6132 C.ar    1  UNL1       -0.0027
     22 C          62.7546   84.2878   12.5737 C.ar    1  UNL1        0.0062
     23 C          62.8908   83.8212   13.9927 C.ar    1  UNL1        0.0189
     24 C          63.0987   82.3650   14.2867 C.ar    1  UNL1        0.0784
     25 N          63.1704   81.3755   13.1617 N.ar    1  UNL1       -0.2922
     26 C          63.3783   79.9194   13.4556 C.3     1  UNL1        0.1336
     27 C          63.0342   81.8422   11.7426 C.ar    1  UNL1        0.2610
     28 O          63.1059   80.8527   10.6175 O.2     1  UNL1       -0.2670
     29 C          62.8263   83.2983   11.4486 C.ar    1  UNL1        0.0608
     30 C          66.3039   93.6352   12.5104 C.3     1  UNL1        0.0586
     31 C          66.9686   92.8381   13.5934 C.3     1  UNL1        0.0831
     32 C          66.4997   93.8330   14.6134 C.3     1  UNL1        0.0153
     33 C          67.4375   91.8433   12.5734 C.3     1  UNL1        0.0153
     34 C          67.6333   92.0411   14.6764 C.1     1  UNL1        0.0712
     35 N          68.2981   91.2441   15.7594 N.1     1  UNL1       -0.1959
@<TRIPOS>BOND
     1    15    14    1
     2    15    16    1
     3    16    17   ar
     4    17    18   ar
     5    18    19   ar
     6    19    22    1
     7    22    23   ar
     8    23    24   ar
     9    24    25   ar
    10    25    26    1
    11    25    27   ar
    12    27    28    2
    13    27    29   ar
    14    19    20   ar
    15    20    21   ar
    16    15     1    1
    17     1     2    1
    18     2     3    1
    19     3     4    1
    20     4    30    1
    21    30    31    1
    22    31    32    1
    23    31    33    1
    24    31    34    1
    25    34    35    3
    26     4     8    1
    27     8     9   ar
    28     9    10   ar
    29    10    11   ar
    30    11    12   ar
    31    12    13   ar
    32     4     5    1
    33     5     6    1
    34     6     7    2
    35    21    16   ar
    36     6     1   am
    37    29    22   ar
    38    13     8   ar
@<TRIPOS>MOLECULE
*****
 35 38 0 0 0
SMALL
GASTEIGER

@<TRIPOS>ATOM
      1 N          63.7483   87.5987   14.7423 N.am    1  UNL1       -0.2438
      2 C          63.7285   87.2569   13.2820 C.3     1  UNL1        0.1009
      3 C          63.7463   85.8213   12.8474 C.3     1  UNL1        0.0661
      4 C          63.7839   84.7276   13.8732 C.3     1  UNL1        0.1587
      5 O          63.8038   85.0694   15.3337 O.3     1  UNL1       -0.4375
      6 C          63.7860   86.5050   15.7682 C.2     1  UNL1        0.4051
      7 O          63.8059   86.8468   17.2286 O.2     1  UNL1       -0.2262
      8 C          63.7762   83.9069   12.6176 C.ar    1  UNL1        0.0138
      9 C          62.6254   84.0103   11.6611 C.ar    1  UNL1       -0.0010
     10 C          62.6177   83.1896   10.4055 C.ar    1  UNL1       -0.0002
     11 C          63.7608   82.2655   10.1066 C.ar    1  UNL1       -0.0000
     12 C          64.9116   82.1621   11.0631 C.ar    1  UNL1       -0.0002
     13 C          64.9193   82.9828   12.3187 C.ar    1  UNL1       -0.0010
     14 C          63.1442   89.4084   16.5058 C.3     1  UNL1        0.0265
     15 C          63.7306   89.0343   15.1769 C.3     1  UNL1        0.1011
     16 C          64.2991   90.0958   14.2824 C.ar    1  UNL1       -0.0042
     17 C          65.5893   90.7697   14.6445 C.ar    1  UNL1       -0.0027
     18 C          66.1578   91.8311   13.7500 C.ar    1  UNL1       -0.0003
     19 C          65.4361   92.2186   12.4934 C.ar    1  UNL1        0.0002
     20 C          64.1460   91.5446   12.1312 C.ar    1  UNL1       -0.0003
     21 C          63.5775   90.4832   13.0257 C.ar    1  UNL1       -0.0027
     22 C          66.0047   93.2801   11.5989 C.ar    1  UNL1        0.0062
     23 C          65.9084   94.7240   11.9934 C.ar    1  UNL1        0.0189
     24 C          66.4769   95.7855   11.0989 C.ar    1  UNL1        0.0784
     25 N          67.1418   95.4029    9.8098 N.ar    1  UNL1       -0.2922
     26 C          67.7104   96.4643    8.9154 C.3     1  UNL1        0.1336
     27 C          67.2381   93.9589    9.4153 C.ar    1  UNL1        0.2610
     28 O          67.9030   93.5763    8.1263 O.2     1  UNL1       -0.2670
     29 C          66.6696   92.8975   10.3098 C.ar    1  UNL1        0.0608
     30 C          63.8189   83.3488   14.4630 C.3     1  UNL1        0.0586
     31 C          62.6002   82.4765   14.4035 C.3     1  UNL1        0.0831
     32 C          63.4620   81.2952   14.0688 C.3     1  UNL1        0.0153
     33 C          61.7384   83.6576   14.7382 C.3     1  UNL1        0.0153
     34 C          61.3815   81.6040   14.3440 C.1     1  UNL1        0.0712
     35 N          60.1627   80.7315   14.2846 N.1     1  UNL1       -0.1959
@<TRIPOS>BOND
     1    15    14    1
     2    15    16    1
     3    16    17   ar
     4    17    18   ar
     5    18    19   ar
     6    19    22    1
     7    22    23   ar
     8    23    24   ar
     9    24    25   ar
    10    25    26    1
    11    25    27   ar
    12    27    28    2
    13    27    29   ar
    14    19    20   ar
    15    20    21   ar
    16    15     1    1
    17     1     2    1
    18     2     3    1
    19     3     4    1
    20     4    30    1
    21    30    31    1
    22    31    32    1
    23    31    33    1
    24    31    34    1
    25    34    35    3
    26     4     8    1
    27     8     9   ar
    28     9    10   ar
    29    10    11   ar
    30    11    12   ar
    31    12    13   ar
    32     4     5    1
    33     5     6    1
    34     6     7    2
    35    21    16   ar
    36     6     1   am
    37    29    22   ar
    38    13     8   ar
@<TRIPOS>MOLECULE
*****
 35 38 0 0 0
SMALL
GASTEIGER

@<TRIPOS>ATOM
      1 N          63.6614   88.0852   14.0024 N.am    1  UNL1       -0.2438
      2 C          64.2597   86.8562   14.6200 C.3     1  UNL1        0.1009
      3 C          63.9253   85.5015   14.0697 C.3     1  UNL1        0.0661
      4 C          62.9927   85.3757   12.9016 C.3     1  UNL1        0.1587
      5 O          62.3943   86.6048   12.2839 O.3     1  UNL1       -0.4375
      6 C          62.7287   87.9595   12.8343 C.2     1  UNL1        0.4051
      7 O          62.1304   89.1885   12.2166 O.2     1  UNL1       -0.2262
      8 C          63.3048   83.9284   13.1427 C.ar    1  UNL1        0.0138
      9 C          62.2399   83.0078   13.6609 C.ar    1  UNL1       -0.0010
     10 C          62.5520   81.5606   13.9020 C.ar    1  UNL1       -0.0002
     11 C          63.9289   81.0340   13.6249 C.ar    1  UNL1       -0.0000
     12 C          64.9938   81.9546   13.1067 C.ar    1  UNL1       -0.0002
     13 C          64.6817   83.4019   12.8656 C.ar    1  UNL1       -0.0010
     14 C          63.7714   89.7352   16.0061 C.3     1  UNL1        0.0265
     15 C          63.9957   89.4399   14.5527 C.3     1  UNL1        0.1011
     16 C          64.5543   90.4994   13.6496 C.ar    1  UNL1       -0.0042
     17 C          65.8201   91.2122   14.0231 C.ar    1  UNL1       -0.0027
     18 C          66.3787   92.2716   13.1200 C.ar    1  UNL1       -0.0003
     19 C          65.6715   92.6182   11.8434 C.ar    1  UNL1        0.0002
     20 C          64.4057   91.9053   11.4699 C.ar    1  UNL1       -0.0003
     21 C          63.8471   90.8460   12.3730 C.ar    1  UNL1       -0.0027
     22 C          66.2301   93.6776   10.9403 C.ar    1  UNL1        0.0062
     23 C          66.0506   95.1267   11.2835 C.ar    1  UNL1        0.0189
     24 C          66.6092   96.1862   10.3804 C.ar    1  UNL1        0.0784
     25 N          67.3474   95.7964    9.1341 N.ar    1  UNL1       -0.2922
     26 C          67.9060   96.8558    8.2310 C.3     1  UNL1        0.1336
     27 C          67.5269   94.3472    8.7909 C.ar    1  UNL1        0.2610
     28 O          68.2651   93.9575    7.5446 O.2     1  UNL1       -0.2670
     29 C          66.9683   93.2879    9.6940 C.ar    1  UNL1        0.0608
     30 C          62.1684   84.7473   11.8173 C.3     1  UNL1        0.0586
     31 C          62.4778   85.0349   10.3780 C.3     1  UNL1        0.0831
     32 C          61.3235   85.9912   10.3209 C.3     1  UNL1        0.0153
     33 C          63.6319   84.0786   10.4350 C.3     1  UNL1        0.0153
     34 C          62.7870   85.3224    8.9387 C.1     1  UNL1        0.0712
     35 N          63.0963   85.6099    7.4993 N.1     1  UNL1       -0.1959
@<TRIPOS>BOND
     1    15    14    1
     2    15    16    1
     3    16    17   ar
     4    17    18   ar
     5    18    19   ar
     6    19    22    1
     7    22    23   ar
     8    23    24   ar
     9    24    25   ar
    10    25    26    1
    11    25    27   ar
    12    27    28    2
    13    27    29   ar
    14    19    20   ar
    15    20    21   ar
    16    15     1    1
    17     1     2    1
    18     2     3    1
    19     3     4    1
    20     4    30    1
    21    30    31    1
    22    31    32    1
    23    31    33    1
    24    31    34    1
    25    34    35    3
    26     4     8    1
    27     8     9   ar
    28     9    10   ar
    29    10    11   ar
    30    11    12   ar
    31    12    13   ar
    32     4     5    1
    33     5     6    1
    34     6     7    2
    35    21    16   ar
    36     6     1   am
    37    29    22   ar
    38    13     8   ar
