@<TRIPOS>MOLECULE
*****
 15 16 0 0 0
SMALL
GASTEIGER

@<TRIPOS>ATOM
      1 O          58.2348   86.9099    7.8562 O.2     1  UNL1       -0.2501
      2 C          59.6514   86.4894    8.1139 C.2     1  UNL1        0.3332
      3 N          60.4821   85.6032    7.2337 N.am    1  UNL1       -0.2342
      4 C          60.6326   86.3447    8.5289 C.3     1  UNL1        0.1199
      5 C          61.9277   86.2818    9.2830 C.3     1  UNL1        0.1272
      6 C          63.0723   85.4774    8.7420 C.3     1  UNL1        0.0289
      7 C          62.9218   84.7359    7.4468 C.3     1  UNL1        0.0586
      8 C          61.6267   84.7988    6.6927 C.3     1  UNL1        0.2407
      9 F          61.4762   84.0572    5.3975 F       1  UNL1       -0.2147
     10 N          60.4861   86.8812    9.2971 N.am    1  UNL1       -0.1290
     11 O          60.0507   87.7623   10.4302 O.3     1  UNL1       -0.1369
     12 S          60.6787   89.1119   10.6150 S.3     1  UNL1        0.0201
     13 O          61.3937   88.6121   11.8352 O.2     1  UNL1       -0.3435
     14 O          59.9637   89.6116    9.3947 O.2     1  UNL1       -0.3435
     15 O          61.3067   90.4615   10.7997 O.co2   1  UNL1       -0.2667
@<TRIPOS>UNITY_ATOM_ATTR
15 1
charge -1
@<TRIPOS>BOND
     1     1     2    2
     2     2     3   am
     3     3     4    1
     4     4     5    1
     5     5     6    1
     6     6     7    1
     7     7     8    1
     8     8     9    1
     9     5    10    1
    10    10    11    1
    11    11    12    1
    12    12    13    2
    13    12    14    2
    14    12    15    1
    15    10     2   am
    16     8     3    1
@<TRIPOS>MOLECULE
*****
 15 16 0 0 0
SMALL
GASTEIGER

@<TRIPOS>ATOM
      1 O          67.5485   93.1284   13.8079 O.2     1  UNL1       -0.2501
      2 C          66.4571   92.6794   12.8820 C.2     1  UNL1        0.3332
      3 N          65.2586   91.8618   13.2627 N.am    1  UNL1       -0.2342
      4 C          65.8293   92.4955   12.0288 C.3     1  UNL1        0.1199
      5 C          65.1123   92.3638   10.7178 C.3     1  UNL1        0.1272
      6 C          63.8248   91.5982   10.6408 C.3     1  UNL1        0.0289
      7 C          63.2541   90.9644   11.8747 C.3     1  UNL1        0.0586
      8 C          63.9710   91.0962   13.1857 C.3     1  UNL1        0.2407
      9 F          63.4003   90.4624   14.4197 F       1  UNL1       -0.2147
     10 N          66.3727   92.9693   11.4126 N.am    1  UNL1       -0.1290
     11 O          67.3647   93.7590   10.6113 O.3     1  UNL1       -0.1369
     12 S          68.0176   93.1437    9.4091 S.3     1  UNL1        0.0201
     13 O          68.7006   92.1423   10.2927 O.2     1  UNL1       -0.3435
     14 O          67.3345   94.1450    8.5256 O.2     1  UNL1       -0.3435
     15 O          68.6704   92.5283    8.2070 O.co2   1  UNL1       -0.2667
@<TRIPOS>UNITY_ATOM_ATTR
15 1
charge -1
@<TRIPOS>BOND
     1     1     2    2
     2     2     3   am
     3     3     4    1
     4     4     5    1
     5     5     6    1
     6     6     7    1
     7     7     8    1
     8     8     9    1
     9     5    10    1
    10    10    11    1
    11    11    12    1
    12    12    13    2
    13    12    14    2
    14    12    15    1
    15    10     2   am
    16     8     3    1
@<TRIPOS>MOLECULE
*****
 15 16 0 0 0
SMALL
GASTEIGER

@<TRIPOS>ATOM
      1 O          64.6709   82.2711   11.0721 O.2     1  UNL1       -0.2501
      2 C          63.7568   83.4561   10.9714 C.2     1  UNL1        0.3332
      3 N          63.4492   84.2288    9.7231 N.am    1  UNL1       -0.2342
      4 C          63.0713   84.2591   11.1743 C.3     1  UNL1        0.1199
      5 C          62.1207   85.3034   11.6802 C.3     1  UNL1        0.1272
      6 C          61.5481   86.3173   10.7347 C.3     1  UNL1        0.0289
      7 C          61.9260   86.2870    9.2835 C.3     1  UNL1        0.0586
      8 C          62.8766   85.2427    8.7777 C.3     1  UNL1        0.2407
      9 F          63.2545   85.2125    7.3263 F       1  UNL1       -0.2147
     10 N          62.9898   84.0766   12.1014 N.am    1  UNL1       -0.1290
     11 O          63.0022   83.6209   13.5305 O.3     1  UNL1       -0.1369
     12 S          63.5700   84.5105   14.5964 S.3     1  UNL1        0.0201
     13 O          62.1848   84.7961   15.0959 O.2     1  UNL1       -0.3435
     14 O          64.9553   84.2249   14.0968 O.2     1  UNL1       -0.3435
     15 O          64.1379   85.4001   15.6623 O.co2   1  UNL1       -0.2667
@<TRIPOS>UNITY_ATOM_ATTR
15 1
charge -1
@<TRIPOS>BOND
     1     1     2    2
     2     2     3   am
     3     3     4    1
     4     4     5    1
     5     5     6    1
     6     6     7    1
     7     7     8    1
     8     8     9    1
     9     5    10    1
    10    10    11    1
    11    11    12    1
    12    12    13    2
    13    12    14    2
    14    12    15    1
    15    10     2   am
    16     8     3    1
@<TRIPOS>MOLECULE
*****
 15 16 0 0 0
SMALL
GASTEIGER

@<TRIPOS>ATOM
      1 O          62.3508   84.8969   13.9885 O.2     1  UNL1       -0.2501
      2 C          62.6843   84.7283   12.5358 C.2     1  UNL1        0.3332
      3 N          62.2192   85.6114   11.4161 N.am    1  UNL1       -0.2342
      4 C          63.0668   84.3863   11.5910 C.3     1  UNL1        0.1199
      5 C          63.7039   83.7384   10.3975 C.3     1  UNL1        0.1272
      6 C          63.4934   84.3156    9.0292 C.3     1  UNL1        0.0289
      7 C          62.6457   85.5407    8.8543 C.3     1  UNL1        0.0586
      8 C          62.0086   86.1886   10.0478 C.3     1  UNL1        0.2407
      9 F          61.1609   87.4137    9.8728 F       1  UNL1       -0.2147
     10 N          63.5416   83.6469   11.9477 N.am    1  UNL1       -0.1290
     11 O          64.2159   82.5443   12.7091 O.3     1  UNL1       -0.1369
     12 S          63.3949   81.5600   13.4882 S.3     1  UNL1        0.0201
     13 O          62.9507   80.9170   12.2079 O.2     1  UNL1       -0.3435
     14 O          63.8391   82.2029   14.7686 O.2     1  UNL1       -0.3435
     15 O          62.5739   80.5756   14.2674 O.co2   1  UNL1       -0.2667
@<TRIPOS>UNITY_ATOM_ATTR
15 1
charge -1
@<TRIPOS>BOND
     1     1     2    2
     2     2     3   am
     3     3     4    1
     4     4     5    1
     5     5     6    1
     6     6     7    1
     7     7     8    1
     8     8     9    1
     9     5    10    1
    10    10    11    1
    11    11    12    1
    12    12    13    2
    13    12    14    2
    14    12    15    1
    15    10     2   am
    16     8     3    1
@<TRIPOS>MOLECULE
*****
 15 16 0 0 0
SMALL
GASTEIGER

@<TRIPOS>ATOM
      1 O          60.6656   87.2690   11.6247 O.2     1  UNL1       -0.2501
      2 C          61.5801   86.2331   11.0411 C.2     1  UNL1        0.3332
      3 N          62.3330   85.1880   11.8098 N.am    1  UNL1       -0.2342
      4 C          62.1640   85.6160   10.3822 C.3     1  UNL1        0.1199
      5 C          62.8912   84.8890    9.2901 C.3     1  UNL1        0.1272
      6 C          63.7875   83.7341    9.6257 C.3     1  UNL1        0.0289
      7 C          63.9566   83.3061   11.0533 C.3     1  UNL1        0.0586
      8 C          63.2294   84.0331   12.1454 C.3     1  UNL1        0.2407
      9 F          63.3985   83.6050   13.5731 F       1  UNL1       -0.2147
     10 N          61.9024   86.0605    9.5863 N.am    1  UNL1       -0.1290
     11 O          61.3667   86.8934    8.4597 O.3     1  UNL1       -0.1369
     12 S          59.9042   86.8556    8.1286 S.3     1  UNL1        0.0201
     13 O          59.7103   88.1642    8.8357 O.2     1  UNL1       -0.3435
     14 O          60.0981   85.5470    7.4216 O.2     1  UNL1       -0.3435
     15 O          58.4417   86.8178    7.7975 O.co2   1  UNL1       -0.2667
@<TRIPOS>UNITY_ATOM_ATTR
15 1
charge -1
@<TRIPOS>BOND
     1     1     2    2
     2     2     3   am
     3     3     4    1
     4     4     5    1
     5     5     6    1
     6     6     7    1
     7     7     8    1
     8     8     9    1
     9     5    10    1
    10    10    11    1
    11    11    12    1
    12    12    13    2
    13    12    14    2
    14    12    15    1
    15    10     2   am
    16     8     3    1
@<TRIPOS>MOLECULE
*****
 15 16 0 0 0
SMALL
GASTEIGER

@<TRIPOS>ATOM
      1 O          66.8601   94.5136   11.2742 O.2     1  UNL1       -0.2501
      2 C          66.0714   93.4378   11.9602 C.2     1  UNL1        0.3332
      3 N          65.0685   92.5302   11.3118 N.am    1  UNL1       -0.2342
      4 C          65.6491   92.7561   12.6763 C.3     1  UNL1        0.1199
      5 C          65.1997   91.9117   13.8318 C.3     1  UNL1        0.1272
      6 C          64.1699   90.8414   13.6227 C.3     1  UNL1        0.0289
      7 C          63.5893   90.6155   12.2583 C.3     1  UNL1        0.0586
      8 C          64.0387   91.4599   11.1028 C.3     1  UNL1        0.2407
      9 F          63.4581   91.2339    9.7382 F       1  UNL1       -0.2147
     10 N          66.1472   93.0807   13.4152 N.am    1  UNL1       -0.1290
     11 O          67.0249   93.7368   14.4395 O.3     1  UNL1       -0.1369
     12 S          67.8905   92.8986   15.3329 S.3     1  UNL1        0.0201
     13 O          68.8202   92.6358   14.1855 O.2     1  UNL1       -0.3435
     14 O          66.9607   93.1614   16.4802 O.2     1  UNL1       -0.3435
     15 O          68.7561   92.0604   16.2263 O.co2   1  UNL1       -0.2667
@<TRIPOS>UNITY_ATOM_ATTR
15 1
charge -1
@<TRIPOS>BOND
     1     1     2    2
     2     2     3   am
     3     3     4    1
     4     4     5    1
     5     5     6    1
     6     6     7    1
     7     7     8    1
     8     8     9    1
     9     5    10    1
    10    10    11    1
    11    11    12    1
    12    12    13    2
    13    12    14    2
    14    12    15    1
    15    10     2   am
    16     8     3    1
@<TRIPOS>MOLECULE
*****
 15 16 0 0 0
SMALL
GASTEIGER

@<TRIPOS>ATOM
      1 O          63.6443   90.3037   15.2174 O.2     1  UNL1       -0.2501
      2 C          63.5770   90.5738   13.7435 C.2     1  UNL1        0.3332
      3 N          62.6978   89.8649   12.7564 N.am    1  UNL1       -0.2342
      4 C          63.7230   90.9598   12.7507 C.3     1  UNL1        0.1199
      5 C          64.0837   91.6429   11.4649 C.3     1  UNL1        0.1272
      6 C          63.4192   91.2310   10.1848 C.3     1  UNL1        0.0289
      7 C          62.3940   90.1361   10.1904 C.3     1  UNL1        0.0586
      8 C          62.0333   89.4530   11.4763 C.3     1  UNL1        0.2407
      9 F          61.0080   88.3581   11.4819 F       1  UNL1       -0.2147
     10 N          64.3772   91.6004   12.9978 N.am    1  UNL1       -0.1290
     11 O          65.3851   92.5370   13.5952 O.3     1  UNL1       -0.1369
     12 S          66.8510   92.2592   13.4406 S.3     1  UNL1        0.0201
     13 O          66.9251   93.2669   12.3321 O.2     1  UNL1       -0.3435
     14 O          66.7769   91.2514   14.5492 O.2     1  UNL1       -0.3435
     15 O          68.3169   91.9813   13.2861 O.co2   1  UNL1       -0.2667
@<TRIPOS>UNITY_ATOM_ATTR
15 1
charge -1
@<TRIPOS>BOND
     1     1     2    2
     2     2     3   am
     3     3     4    1
     4     4     5    1
     5     5     6    1
     6     6     7    1
     7     7     8    1
     8     8     9    1
     9     5    10    1
    10    10    11    1
    11    11    12    1
    12    12    13    2
    13    12    14    2
    14    12    15    1
    15    10     2   am
    16     8     3    1
@<TRIPOS>MOLECULE
*****
 15 16 0 0 0
SMALL
GASTEIGER

@<TRIPOS>ATOM
      1 O          63.0782   84.8728   10.9068 O.2     1  UNL1       -0.2501
      2 C          62.8838   83.6790   11.7940 C.2     1  UNL1        0.3332
      3 N          62.8690   82.2455   11.3527 N.am    1  UNL1       -0.2342
      4 C          62.7263   83.0203   12.6291 C.3     1  UNL1        0.1199
      5 C          62.4987   82.2977   13.9237 C.3     1  UNL1        0.1272
      6 C          62.4136   80.8003   13.9419 C.3     1  UNL1        0.0289
      7 C          62.5562   80.0255   12.6655 C.3     1  UNL1        0.0586
      8 C          62.7839   80.7481   11.3709 C.3     1  UNL1        0.2407
      9 F          62.9265   79.9732   10.0944 F       1  UNL1       -0.2147
     10 N          62.6700   83.7091   13.2785 N.am    1  UNL1       -0.1290
     11 O          62.6131   84.9384   14.1363 O.3     1  UNL1       -0.1369
     12 S          63.8822   85.6169   14.5596 S.3     1  UNL1        0.0201
     13 O          63.6440   86.6955   13.5448 O.2     1  UNL1       -0.3435
     14 O          64.1203   84.5383   15.5744 O.2     1  UNL1       -0.3435
     15 O          65.1512   86.2954   14.9829 O.co2   1  UNL1       -0.2667
@<TRIPOS>UNITY_ATOM_ATTR
15 1
charge -1
@<TRIPOS>BOND
     1     1     2    2
     2     2     3   am
     3     3     4    1
     4     4     5    1
     5     5     6    1
     6     6     7    1
     7     7     8    1
     8     8     9    1
     9     5    10    1
    10    10    11    1
    11    11    12    1
    12    12    13    2
    13    12    14    2
    14    12    15    1
    15    10     2   am
    16     8     3    1
@<TRIPOS>MOLECULE
*****
 15 16 0 0 0
SMALL
GASTEIGER

@<TRIPOS>ATOM
      1 O          63.4934   86.9658   13.1513 O.2     1  UNL1       -0.2501
      2 C          63.6127   85.4717   13.2098 C.2     1  UNL1        0.3332
      3 N          63.5506   84.5357   12.0393 N.am    1  UNL1       -0.2342
      4 C          63.7257   84.4505   13.5266 C.3     1  UNL1        0.1199
      5 C          63.9013   83.1146   14.1858 C.3     1  UNL1        0.1272
      6 C          63.9017   81.8639   13.3577 C.3     1  UNL1        0.0289
      7 C          63.7265   81.9491   11.8705 C.3     1  UNL1        0.0586
      8 C          63.5510   83.2850   11.2113 C.3     1  UNL1        0.2407
      9 F          63.3758   83.3701    9.7239 F       1  UNL1       -0.2147
     10 N          63.8152   84.6512   14.4491 N.am    1  UNL1       -0.1290
     11 O          63.9339   85.1808   15.8475 O.3     1  UNL1       -0.1369
     12 S          62.7263   85.7324   16.5456 S.3     1  UNL1        0.0201
     13 O          63.3199   87.1086   16.4849 O.2     1  UNL1       -0.3435
     14 O          62.1328   84.3562   16.6063 O.2     1  UNL1       -0.3435
     15 O          61.5187   86.2840   17.2437 O.co2   1  UNL1       -0.2667
@<TRIPOS>UNITY_ATOM_ATTR
15 1
charge -1
@<TRIPOS>BOND
     1     1     2    2
     2     2     3   am
     3     3     4    1
     4     4     5    1
     5     5     6    1
     6     6     7    1
     7     7     8    1
     8     8     9    1
     9     5    10    1
    10    10    11    1
    11    11    12    1
    12    12    13    2
    13    12    14    2
    14    12    15    1
    15    10     2   am
    16     8     3    1
