@<TRIPOS>MOLECULE
*****
 33 37 0 0 0
SMALL
GASTEIGER

@<TRIPOS>ATOM
      1 C          61.7051   90.4893    9.2460 C.3     1  UNL1        0.0518
      2 C          62.7205   90.7503   10.3189 C.ar    1  UNL1        0.0580
      3 N          63.8941   91.6418   10.0398 N.ar    1  UNL1       -0.2499
      4 C          64.9094   91.9028   11.1126 C.ar    1  UNL1        0.0809
      5 C          66.0831   92.7943   10.8336 C.ar    1  UNL1        0.0191
      6 C          67.0984   93.0553   11.9065 C.ar    1  UNL1        0.0015
      7 C          66.9401   92.4249   13.2583 C.ar    1  UNL1        0.0001
      8 C          65.7664   91.5334   13.5373 C.ar    1  UNL1        0.0015
      9 C          64.7511   91.2724   12.4645 C.ar    1  UNL1        0.0175
     10 C          63.5775   90.3809   12.7436 C.ar    1  UNL1        0.0027
     11 C          62.5621   90.1199   11.6707 C.ar    1  UNL1        0.0235
     12 C          63.4192   89.7505   14.0954 C.ar    1  UNL1        0.0177
     13 C          63.1338   90.6067   15.2935 C.ar    1  UNL1        0.0046
     14 C          62.9755   89.9763   16.6453 C.ar    1  UNL1        0.0370
     15 C          63.1025   88.4895   16.7990 C.ar    1  UNL1        0.1396
     16 C          63.3879   87.6333   15.6009 C.ar    1  UNL1        0.0478
     17 C          63.5150   86.1467   15.7546 C.ar    1  UNL1       -0.0125
     18 C          63.8004   85.2904   14.5565 C.ar    1  UNL1        0.0166
     19 C          63.9587   85.9209   13.2047 C.ar    1  UNL1        0.0985
     20 N          63.8316   87.4076   13.0510 N.ar    1  UNL1       -0.2438
     21 C          63.5462   88.2638   14.2491 C.ar    1  UNL1        0.0839
     22 C          63.3566   85.5161   17.1065 C.3     1  UNL1        0.0738
     23 C          63.0713   86.3723   18.3046 C.3     1  UNL1        0.2101
     24 O          62.9442   87.8591   18.1508 O.3     1  UNL1       -0.4751
     25 C          61.3885   89.2284   11.9497 C.3     1  UNL1        0.1744
     26 C          60.1466   89.7958   12.5708 C.2     1  UNL1        0.0816
     27 O          59.7873   89.4449   13.9843 O.co2   1  UNL1       -0.5464
     28 O          59.2640   90.7141   11.7785 O.co2   1  UNL1       -0.5464
     29 O          61.4568   87.7695   11.6075 O.3     1  UNL1       -0.3510
     30 C          61.0441   87.2988   10.2444 C.3     1  UNL1        0.0938
     31 C          62.4292   86.7744   10.0062 C.3     1  UNL1        0.0297
     32 C          59.6591   87.8231   10.4826 C.3     1  UNL1        0.0297
     33 C          60.6315   86.8280    8.8813 C.3     1  UNL1        0.0297
@<TRIPOS>UNITY_ATOM_ATTR
27 1
charge -1
@<TRIPOS>BOND
     1     1     2    1
     2     2     3   ar
     3     3     4   ar
     4     4     5   ar
     5     5     6   ar
     6     6     7   ar
     7     7     8   ar
     8     8     9   ar
     9     9    10   ar
    10    10    12    1
    11    12    13   ar
    12    13    14   ar
    13    14    15   ar
    14    15    16   ar
    15    16    17   ar
    16    17    18   ar
    17    18    19   ar
    18    19    20   ar
    19    20    21   ar
    20    17    22    1
    21    22    23    1
    22    23    24    1
    23    10    11   ar
    24    11    25    1
    25    25    29    1
    26    29    30    1
    27    30    31    1
    28    30    32    1
    29    30    33    1
    30    25    26    1
    31    26    27   ar
    32    26    28   ar
    33    11     2   ar
    34     9     4   ar
    35    21    12   ar
    36    24    15    1
    37    21    16   ar
@<TRIPOS>MOLECULE
*****
 33 37 0 0 0
SMALL
GASTEIGER

@<TRIPOS>ATOM
      1 C          64.2686   93.0099   -0.5801 C.3     1  UNL1        0.0518
      2 C          63.3444   93.4376   -1.6815 C.ar    1  UNL1        0.0580
      3 N          63.7839   93.3341   -3.1119 N.ar    1  UNL1       -0.2499
      4 C          62.8597   93.7617   -4.2133 C.ar    1  UNL1        0.0809
      5 C          63.2992   93.6582   -5.6437 C.ar    1  UNL1        0.0191
      6 C          62.3750   94.0859   -6.7451 C.ar    1  UNL1        0.0015
      7 C          61.0114   94.6171   -6.4161 C.ar    1  UNL1        0.0001
      8 C          60.5719   94.7206   -4.9856 C.ar    1  UNL1        0.0015
      9 C          61.4960   94.2929   -3.8843 C.ar    1  UNL1        0.0175
     10 C          61.0565   94.3964   -2.4538 C.ar    1  UNL1        0.0027
     11 C          61.9807   93.9687   -1.3524 C.ar    1  UNL1        0.0235
     12 C          59.6929   94.9275   -2.1248 C.ar    1  UNL1        0.0177
     13 C          59.5392   96.3217   -1.5930 C.ar    1  UNL1        0.0046
     14 C          58.1756   96.8528   -1.2640 C.ar    1  UNL1        0.0370
     15 C          56.9655   95.9898   -1.4666 C.ar    1  UNL1        0.1396
     16 C          57.1192   94.5957   -1.9984 C.ar    1  UNL1        0.0478
     17 C          55.9092   93.7327   -2.2010 C.ar    1  UNL1       -0.0125
     18 C          56.0628   92.3385   -2.7328 C.ar    1  UNL1        0.0166
     19 C          57.4265   91.8074   -3.0618 C.ar    1  UNL1        0.0985
     20 N          58.6366   92.6704   -2.8592 N.ar    1  UNL1       -0.2438
     21 C          58.4829   94.0645   -2.3274 C.ar    1  UNL1        0.0839
     22 C          54.5454   94.2638   -1.8720 C.3     1  UNL1        0.0738
     23 C          54.3918   95.6579   -1.3402 C.3     1  UNL1        0.2101
     24 O          55.6019   96.5210   -1.1376 O.3     1  UNL1       -0.4751
     25 C          61.5412   94.0722    0.0780 C.3     1  UNL1        0.1744
     26 C          60.8405   92.9188    0.7326 C.2     1  UNL1        0.0816
     27 O          60.6801   91.6224   -0.0047 O.co2   1  UNL1       -0.5464
     28 O          60.3000   93.0618    2.1245 O.co2   1  UNL1       -0.5464
     29 O          61.8025   95.3292    0.8538 O.3     1  UNL1       -0.3510
     30 C          63.2068   95.8293    1.0207 C.3     1  UNL1        0.0938
     31 C          63.4443   94.8053    2.0908 C.3     1  UNL1        0.0297
     32 C          62.9693   96.8533   -0.0494 C.3     1  UNL1        0.0297
     33 C          64.6111   96.3294    1.1876 C.3     1  UNL1        0.0297
@<TRIPOS>UNITY_ATOM_ATTR
27 1
charge -1
@<TRIPOS>BOND
     1     1     2    1
     2     2     3   ar
     3     3     4   ar
     4     4     5   ar
     5     5     6   ar
     6     6     7   ar
     7     7     8   ar
     8     8     9   ar
     9     9    10   ar
    10    10    12    1
    11    12    13   ar
    12    13    14   ar
    13    14    15   ar
    14    15    16   ar
    15    16    17   ar
    16    17    18   ar
    17    18    19   ar
    18    19    20   ar
    19    20    21   ar
    20    17    22    1
    21    22    23    1
    22    23    24    1
    23    10    11   ar
    24    11    25    1
    25    25    29    1
    26    29    30    1
    27    30    31    1
    28    30    32    1
    29    30    33    1
    30    25    26    1
    31    26    27   ar
    32    26    28   ar
    33    11     2   ar
    34     9     4   ar
    35    21    12   ar
    36    24    15    1
    37    21    16   ar
@<TRIPOS>MOLECULE
*****
 33 37 0 0 0
SMALL
GASTEIGER

@<TRIPOS>ATOM
      1 C          65.0381   89.1508   14.5155 C.3     1  UNL1        0.0518
      2 C          64.1107   88.4055   13.6020 C.ar    1  UNL1        0.0580
      3 N          63.4583   89.1159   12.4532 N.ar    1  UNL1       -0.2499
      4 C          62.5308   88.3706   11.5398 C.ar    1  UNL1        0.0809
      5 C          61.8784   89.0810   10.3910 C.ar    1  UNL1        0.0191
      6 C          60.9510   88.3356    9.4775 C.ar    1  UNL1        0.0015
      7 C          60.6759   86.8800    9.7129 C.ar    1  UNL1        0.0001
      8 C          61.3283   86.1696   10.8617 C.ar    1  UNL1        0.0015
      9 C          62.2558   86.9149   11.7751 C.ar    1  UNL1        0.0175
     10 C          62.9082   86.2045   12.9239 C.ar    1  UNL1        0.0027
     11 C          63.8357   86.9498   13.8374 C.ar    1  UNL1        0.0235
     12 C          62.6332   84.7489   13.1593 C.ar    1  UNL1        0.0177
     13 C          61.9266   84.3114   14.4080 C.ar    1  UNL1        0.0046
     14 C          61.6516   82.8558   14.6434 C.ar    1  UNL1        0.0370
     15 C          62.0831   81.8375   13.6300 C.ar    1  UNL1        0.1396
     16 C          62.7897   82.2749   12.3812 C.ar    1  UNL1        0.0478
     17 C          63.2213   81.2568   11.3678 C.ar    1  UNL1       -0.0125
     18 C          63.9279   81.6942   10.1191 C.ar    1  UNL1        0.0166
     19 C          64.2029   83.1499    9.8837 C.ar    1  UNL1        0.0985
     20 N          63.7714   84.1681   10.8971 N.ar    1  UNL1       -0.2438
     21 C          63.0648   83.7307   12.1459 C.ar    1  UNL1        0.0839
     22 C          62.9463   79.8010   11.6032 C.3     1  UNL1        0.0738
     23 C          62.2397   79.3636   12.8519 C.3     1  UNL1        0.2101
     24 O          61.8081   80.3819   13.8653 O.3     1  UNL1       -0.4751
     25 C          64.4881   86.2395   14.9862 C.3     1  UNL1        0.1744
     26 C          65.3522   85.0399   14.7329 C.2     1  UNL1        0.0816
     27 O          66.7564   85.2184   14.2363 O.co2   1  UNL1       -0.5464
     28 O          64.8123   83.6617   14.9763 O.co2   1  UNL1       -0.5464
     29 O          64.2763   86.7288   16.3883 O.3     1  UNL1       -0.3510
     30 C          62.8941   86.7632   16.9699 C.3     1  UNL1        0.0938
     31 C          62.8608   85.2636   16.9797 C.3     1  UNL1        0.0297
     32 C          62.9273   88.2628   16.9600 C.3     1  UNL1        0.0297
     33 C          61.5118   86.7977   17.5514 C.3     1  UNL1        0.0297
@<TRIPOS>UNITY_ATOM_ATTR
27 1
charge -1
@<TRIPOS>BOND
     1     1     2    1
     2     2     3   ar
     3     3     4   ar
     4     4     5   ar
     5     5     6   ar
     6     6     7   ar
     7     7     8   ar
     8     8     9   ar
     9     9    10   ar
    10    10    12    1
    11    12    13   ar
    12    13    14   ar
    13    14    15   ar
    14    15    16   ar
    15    16    17   ar
    16    17    18   ar
    17    18    19   ar
    18    19    20   ar
    19    20    21   ar
    20    17    22    1
    21    22    23    1
    22    23    24    1
    23    10    11   ar
    24    11    25    1
    25    25    29    1
    26    29    30    1
    27    30    31    1
    28    30    32    1
    29    30    33    1
    30    25    26    1
    31    26    27   ar
    32    26    28   ar
    33    11     2   ar
    34     9     4   ar
    35    21    12   ar
    36    24    15    1
    37    21    16   ar
@<TRIPOS>MOLECULE
*****
 33 37 0 0 0
SMALL
GASTEIGER

@<TRIPOS>ATOM
      1 C          64.7353   83.6976   15.3239 C.3     1  UNL1        0.0518
      2 C          64.3575   84.9346   14.5641 C.ar    1  UNL1        0.0580
      3 N          64.5902   86.2871   15.1696 N.ar    1  UNL1       -0.2499
      4 C          64.2125   87.5240   14.4099 C.ar    1  UNL1        0.0809
      5 C          64.4452   88.8765   15.0154 C.ar    1  UNL1        0.0191
      6 C          64.0674   90.1135   14.2556 C.ar    1  UNL1        0.0015
      7 C          63.4569   89.9980   12.8904 C.ar    1  UNL1        0.0001
      8 C          63.2242   88.6455   12.2849 C.ar    1  UNL1        0.0015
      9 C          63.6019   87.4085   13.0446 C.ar    1  UNL1        0.0175
     10 C          63.3692   86.0561   12.4391 C.ar    1  UNL1        0.0027
     11 C          63.7470   84.8191   13.1989 C.ar    1  UNL1        0.0235
     12 C          62.7586   85.9405   11.0739 C.ar    1  UNL1        0.0177
     13 C          63.3847   85.0458   10.0456 C.ar    1  UNL1        0.0046
     14 C          62.7742   84.9303    8.6803 C.ar    1  UNL1        0.0370
     15 C          61.5375   85.7095    8.3434 C.ar    1  UNL1        0.1396
     16 C          60.9114   86.6042    9.3717 C.ar    1  UNL1        0.0478
     17 C          59.6748   87.3834    9.0348 C.ar    1  UNL1       -0.0125
     18 C          59.0486   88.2781   10.0631 C.ar    1  UNL1        0.0166
     19 C          59.6592   88.3936   11.4284 C.ar    1  UNL1        0.0985
     20 N          60.8959   87.6144   11.7653 N.ar    1  UNL1       -0.2438
     21 C          61.5220   86.7197   10.7370 C.ar    1  UNL1        0.0839
     22 C          59.0642   87.2679    7.6695 C.3     1  UNL1        0.0738
     23 C          59.6903   86.3731    6.6412 C.3     1  UNL1        0.2101
     24 O          60.9270   85.5939    6.9782 O.3     1  UNL1       -0.4751
     25 C          63.5142   83.4666   12.5934 C.3     1  UNL1        0.1744
     26 C          64.6380   82.7490   11.9064 C.2     1  UNL1        0.0816
     27 O          65.4240   81.7059   12.6442 O.co2   1  UNL1       -0.5464
     28 O          64.9758   83.0743   10.4816 O.co2   1  UNL1       -0.5464
     29 O          62.1576   82.8318   12.6749 O.3     1  UNL1       -0.3510
     30 C          62.0250   81.3960   13.0886 C.3     1  UNL1        0.0938
     31 C          61.6921   81.8292   14.4855 C.3     1  UNL1        0.0297
     32 C          62.3579   80.9628   11.6916 C.3     1  UNL1        0.0297
     33 C          61.8925   79.9603   13.5022 C.3     1  UNL1        0.0297
@<TRIPOS>UNITY_ATOM_ATTR
27 1
charge -1
@<TRIPOS>BOND
     1     1     2    1
     2     2     3   ar
     3     3     4   ar
     4     4     5   ar
     5     5     6   ar
     6     6     7   ar
     7     7     8   ar
     8     8     9   ar
     9     9    10   ar
    10    10    12    1
    11    12    13   ar
    12    13    14   ar
    13    14    15   ar
    14    15    16   ar
    15    16    17   ar
    16    17    18   ar
    17    18    19   ar
    18    19    20   ar
    19    20    21   ar
    20    17    22    1
    21    22    23    1
    22    23    24    1
    23    10    11   ar
    24    11    25    1
    25    25    29    1
    26    29    30    1
    27    30    31    1
    28    30    32    1
    29    30    33    1
    30    25    26    1
    31    26    27   ar
    32    26    28   ar
    33    11     2   ar
    34     9     4   ar
    35    21    12   ar
    36    24    15    1
    37    21    16   ar
@<TRIPOS>MOLECULE
*****
 33 37 0 0 0
SMALL
GASTEIGER

@<TRIPOS>ATOM
      1 C          66.3379   93.2221   11.1184 C.3     1  UNL1        0.0518
      2 C          65.1990   92.2692   11.3307 C.ar    1  UNL1        0.0580
      3 N          64.2584   91.9617   10.2035 N.ar    1  UNL1       -0.2499
      4 C          63.1195   91.0089   10.4157 C.ar    1  UNL1        0.0809
      5 C          62.1789   90.7014    9.2884 C.ar    1  UNL1        0.0191
      6 C          61.0399   89.7486    9.5007 C.ar    1  UNL1        0.0015
      7 C          60.8416   89.1033   10.8402 C.ar    1  UNL1        0.0001
      8 C          61.7822   89.4109   11.9675 C.ar    1  UNL1        0.0015
      9 C          62.9211   90.3636   11.7553 C.ar    1  UNL1        0.0175
     10 C          63.8617   90.6712   12.8825 C.ar    1  UNL1        0.0027
     11 C          65.0007   91.6240   12.6702 C.ar    1  UNL1        0.0235
     12 C          63.6634   90.0259   14.2220 C.ar    1  UNL1        0.0177
     13 C          63.4411   90.8754   15.4381 C.ar    1  UNL1        0.0046
     14 C          63.2428   90.2301   16.7776 C.ar    1  UNL1        0.0370
     15 C          63.2668   88.7354   16.9010 C.ar    1  UNL1        0.1396
     16 C          63.4891   87.8859   15.6849 C.ar    1  UNL1        0.0478
     17 C          63.5131   86.3912   15.8083 C.ar    1  UNL1       -0.0125
     18 C          63.7355   85.5418   14.5921 C.ar    1  UNL1        0.0166
     19 C          63.9338   86.1870   13.2526 C.ar    1  UNL1        0.0985
     20 N          63.9098   87.6818   13.1292 N.ar    1  UNL1       -0.2438
     21 C          63.6874   88.5312   14.3454 C.ar    1  UNL1        0.0839
     22 C          63.3148   85.7459   17.1478 C.3     1  UNL1        0.0738
     23 C          63.0925   86.5954   18.3639 C.3     1  UNL1        0.2101
     24 O          63.0685   88.0901   18.2405 O.3     1  UNL1       -0.4751
     25 C          65.9412   91.9315   13.7975 C.3     1  UNL1        0.1744
     26 C          65.7149   93.1418   14.6542 C.2     1  UNL1        0.0816
     27 O          65.0928   92.9944   16.0112 O.co2   1  UNL1       -0.5464
     28 O          66.1106   94.4994   14.1540 O.co2   1  UNL1       -0.5464
     29 O          67.1083   91.0287   14.0680 O.3     1  UNL1       -0.3510
     30 C          68.4786   91.6097   14.2540 C.3     1  UNL1        0.0938
     31 C          68.2452   91.6865   15.7337 C.3     1  UNL1        0.0297
     32 C          68.7120   91.5329   12.7742 C.3     1  UNL1        0.0297
     33 C          69.8490   92.1907   14.4400 C.3     1  UNL1        0.0297
@<TRIPOS>UNITY_ATOM_ATTR
27 1
charge -1
@<TRIPOS>BOND
     1     1     2    1
     2     2     3   ar
     3     3     4   ar
     4     4     5   ar
     5     5     6   ar
     6     6     7   ar
     7     7     8   ar
     8     8     9   ar
     9     9    10   ar
    10    10    12    1
    11    12    13   ar
    12    13    14   ar
    13    14    15   ar
    14    15    16   ar
    15    16    17   ar
    16    17    18   ar
    17    18    19   ar
    18    19    20   ar
    19    20    21   ar
    20    17    22    1
    21    22    23    1
    22    23    24    1
    23    10    11   ar
    24    11    25    1
    25    25    29    1
    26    29    30    1
    27    30    31    1
    28    30    32    1
    29    30    33    1
    30    25    26    1
    31    26    27   ar
    32    26    28   ar
    33    11     2   ar
    34     9     4   ar
    35    21    12   ar
    36    24    15    1
    37    21    16   ar
@<TRIPOS>MOLECULE
*****
 33 37 0 0 0
SMALL
GASTEIGER

@<TRIPOS>ATOM
      1 C          62.2634   90.7945    9.4497 C.3     1  UNL1        0.0518
      2 C          63.2114   90.9849   10.5966 C.ar    1  UNL1        0.0580
      3 N          64.4147   91.8661   10.4366 N.ar    1  UNL1       -0.2499
      4 C          65.3627   92.0564   11.5833 C.ar    1  UNL1        0.0809
      5 C          66.5660   92.9376   11.4233 C.ar    1  UNL1        0.0191
      6 C          67.5140   93.1280   12.5701 C.ar    1  UNL1        0.0015
      7 C          67.2587   92.4372   13.8768 C.ar    1  UNL1        0.0001
      8 C          66.0554   91.5560   14.0368 C.ar    1  UNL1        0.0015
      9 C          65.1074   91.3656   12.8901 C.ar    1  UNL1        0.0175
     10 C          63.9041   90.4844   13.0501 C.ar    1  UNL1        0.0027
     11 C          62.9561   90.2941   11.9033 C.ar    1  UNL1        0.0235
     12 C          63.6488   89.7936   14.3568 C.ar    1  UNL1        0.0177
     13 C          63.3525   90.6002   15.5863 C.ar    1  UNL1        0.0046
     14 C          63.0972   89.9093   16.8930 C.ar    1  UNL1        0.0370
     15 C          63.1382   88.4118   16.9703 C.ar    1  UNL1        0.1396
     16 C          63.4346   87.6052   15.7408 C.ar    1  UNL1        0.0478
     17 C          63.4757   86.1078   15.8180 C.ar    1  UNL1       -0.0125
     18 C          63.7721   85.3013   14.5886 C.ar    1  UNL1        0.0166
     19 C          64.0274   85.9921   13.2819 C.ar    1  UNL1        0.0985
     20 N          63.9863   87.4896   13.2046 N.ar    1  UNL1       -0.2438
     21 C          63.6899   88.2962   14.4340 C.ar    1  UNL1        0.0839
     22 C          63.2204   85.4169   17.1248 C.3     1  UNL1        0.0738
     23 C          62.9240   86.2235   18.3543 C.3     1  UNL1        0.2101
     24 O          62.8829   87.7210   18.2770 O.3     1  UNL1       -0.4751
     25 C          61.7528   89.4129   12.0633 C.3     1  UNL1        0.1744
     26 C          61.6345   88.1519   11.2596 C.2     1  UNL1        0.0816
     27 O          62.4377   87.9846   10.0038 O.co2   1  UNL1       -0.5464
     28 O          60.7130   87.0581   11.7118 O.co2   1  UNL1       -0.5464
     29 O          60.6678   89.7927   13.0269 O.3     1  UNL1       -0.3510
     30 C          59.2311   89.5447   12.6745 C.3     1  UNL1        0.0938
     31 C          59.0723   88.7091   13.9100 C.3     1  UNL1        0.0297
     32 C          59.3899   90.3802   11.4389 C.3     1  UNL1        0.0297
     33 C          57.7943   89.2966   12.3220 C.3     1  UNL1        0.0297
@<TRIPOS>UNITY_ATOM_ATTR
27 1
charge -1
@<TRIPOS>BOND
     1     1     2    1
     2     2     3   ar
     3     3     4   ar
     4     4     5   ar
     5     5     6   ar
     6     6     7   ar
     7     7     8   ar
     8     8     9   ar
     9     9    10   ar
    10    10    12    1
    11    12    13   ar
    12    13    14   ar
    13    14    15   ar
    14    15    16   ar
    15    16    17   ar
    16    17    18   ar
    17    18    19   ar
    18    19    20   ar
    19    20    21   ar
    20    17    22    1
    21    22    23    1
    22    23    24    1
    23    10    11   ar
    24    11    25    1
    25    25    29    1
    26    29    30    1
    27    30    31    1
    28    30    32    1
    29    30    33    1
    30    25    26    1
    31    26    27   ar
    32    26    28   ar
    33    11     2   ar
    34     9     4   ar
    35    21    12   ar
    36    24    15    1
    37    21    16   ar
@<TRIPOS>MOLECULE
*****
 33 37 0 0 0
SMALL
GASTEIGER

@<TRIPOS>ATOM
      1 C          64.1796   93.4425   -0.9245 C.3     1  UNL1        0.0518
      2 C          63.3844   93.6475   -2.1799 C.ar    1  UNL1        0.0580
      3 N          63.9907   93.3231   -3.5130 N.ar    1  UNL1       -0.2499
      4 C          63.1956   93.5281   -4.7683 C.ar    1  UNL1        0.0809
      5 C          63.8019   93.2037   -6.1014 C.ar    1  UNL1        0.0191
      6 C          63.0068   93.4087   -7.3568 C.ar    1  UNL1        0.0015
      7 C          61.6055   93.9381   -7.2790 C.ar    1  UNL1        0.0001
      8 C          60.9992   94.2625   -5.9458 C.ar    1  UNL1        0.0015
      9 C          61.7943   94.0575   -4.6905 C.ar    1  UNL1        0.0175
     10 C          61.1880   94.3819   -3.3574 C.ar    1  UNL1        0.0027
     11 C          61.9832   94.1769   -2.1020 C.ar    1  UNL1        0.0235
     12 C          59.7868   94.9113   -3.2796 C.ar    1  UNL1        0.0177
     13 C          59.4653   96.2671   -3.8351 C.ar    1  UNL1        0.0046
     14 C          58.0640   96.7965   -3.7573 C.ar    1  UNL1        0.0370
     15 C          56.9841   95.9701   -3.1239 C.ar    1  UNL1        0.1396
     16 C          57.3056   94.6144   -2.5684 C.ar    1  UNL1        0.0478
     17 C          56.2258   93.7881   -1.9350 C.ar    1  UNL1       -0.0125
     18 C          56.5473   92.4324   -1.3794 C.ar    1  UNL1        0.0166
     19 C          57.9486   91.9029   -1.4573 C.ar    1  UNL1        0.0985
     20 N          59.0285   92.7293   -2.0907 N.ar    1  UNL1       -0.2438
     21 C          58.7070   94.0850   -2.6462 C.ar    1  UNL1        0.0839
     22 C          54.8245   94.3175   -1.8571 C.3     1  UNL1        0.0738
     23 C          54.5030   95.6732   -2.4127 C.3     1  UNL1        0.2101
     24 O          55.5828   96.4996   -3.0461 O.3     1  UNL1       -0.4751
     25 C          61.3769   94.5013   -0.7689 C.3     1  UNL1        0.1744
     26 C          61.3973   95.9118   -0.2590 C.2     1  UNL1        0.0816
     27 O          60.1919   96.4770    0.4320 O.co2   1  UNL1       -0.5464
     28 O          62.6232   96.7571   -0.4400 O.co2   1  UNL1       -0.5464
     29 O          60.7502   93.4151    0.0543 O.3     1  UNL1       -0.3510
     30 C          61.5796   92.6497    1.0423 C.3     1  UNL1        0.0938
     31 C          62.0308   93.9389    1.6623 C.3     1  UNL1        0.0297
     32 C          61.1284   91.3605    0.4223 C.3     1  UNL1        0.0297
     33 C          62.4090   91.8842    2.0303 C.3     1  UNL1        0.0297
@<TRIPOS>UNITY_ATOM_ATTR
27 1
charge -1
@<TRIPOS>BOND
     1     1     2    1
     2     2     3   ar
     3     3     4   ar
     4     4     5   ar
     5     5     6   ar
     6     6     7   ar
     7     7     8   ar
     8     8     9   ar
     9     9    10   ar
    10    10    12    1
    11    12    13   ar
    12    13    14   ar
    13    14    15   ar
    14    15    16   ar
    15    16    17   ar
    16    17    18   ar
    17    18    19   ar
    18    19    20   ar
    19    20    21   ar
    20    17    22    1
    21    22    23    1
    22    23    24    1
    23    10    11   ar
    24    11    25    1
    25    25    29    1
    26    29    30    1
    27    30    31    1
    28    30    32    1
    29    30    33    1
    30    25    26    1
    31    26    27   ar
    32    26    28   ar
    33    11     2   ar
    34     9     4   ar
    35    21    12   ar
    36    24    15    1
    37    21    16   ar
@<TRIPOS>MOLECULE
*****
 33 37 0 0 0
SMALL
GASTEIGER

@<TRIPOS>ATOM
      1 C          62.4188   91.5838    9.2702 C.3     1  UNL1        0.0518
      2 C          63.2559   91.3489   10.4925 C.ar    1  UNL1        0.0580
      3 N          64.2825   92.3620   10.9046 N.ar    1  UNL1       -0.2499
      4 C          65.1196   92.1271   12.1269 C.ar    1  UNL1        0.0809
      5 C          66.1461   93.1403   12.5389 C.ar    1  UNL1        0.0191
      6 C          66.9833   92.9053   13.7612 C.ar    1  UNL1        0.0015
      7 C          66.7939   91.6573   14.5715 C.ar    1  UNL1        0.0001
      8 C          65.7673   90.6442   14.1595 C.ar    1  UNL1        0.0015
      9 C          64.9302   90.8791   12.9372 C.ar    1  UNL1        0.0175
     10 C          63.9036   89.8659   12.5252 C.ar    1  UNL1        0.0027
     11 C          63.0665   90.1009   11.3028 C.ar    1  UNL1        0.0235
     12 C          63.7142   88.6179   13.3354 C.ar    1  UNL1        0.0177
     13 C          63.7717   87.2752   12.6692 C.ar    1  UNL1        0.0046
     14 C          63.5823   86.0272   13.4795 C.ar    1  UNL1        0.0370
     15 C          63.3353   86.1219   14.9560 C.ar    1  UNL1        0.1396
     16 C          63.2778   87.4646   15.6222 C.ar    1  UNL1        0.0478
     17 C          63.0309   87.5593   17.0987 C.ar    1  UNL1       -0.0125
     18 C          62.9734   88.9020   17.7649 C.ar    1  UNL1        0.0166
     19 C          63.1628   90.1500   16.9547 C.ar    1  UNL1        0.0985
     20 N          63.4098   90.0554   15.4781 N.ar    1  UNL1       -0.2438
     21 C          63.4673   88.7127   14.8119 C.ar    1  UNL1        0.0839
     22 C          62.8414   86.3113   17.9091 C.3     1  UNL1        0.0738
     23 C          62.8989   84.9686   17.2428 C.3     1  UNL1        0.2101
     24 O          63.1459   84.8739   15.7663 O.3     1  UNL1       -0.4751
     25 C          62.0399   89.0877   10.8908 C.3     1  UNL1        0.1744
     26 C          60.6743   89.1088   11.5109 C.2     1  UNL1        0.0816
     27 O          59.8966   90.3902   11.5689 O.co2   1  UNL1       -0.5464
     28 O          60.0863   87.8486   12.0730 O.co2   1  UNL1       -0.5464
     29 O          62.3791   88.0535    9.8586 O.3     1  UNL1       -0.3510
     30 C          61.2906   87.2307    9.2355 C.3     1  UNL1        0.0938
     31 C          60.6681   88.4764    8.6781 C.3     1  UNL1        0.0297
     32 C          61.9132   85.9850    9.7929 C.3     1  UNL1        0.0297
     33 C          60.2021   86.4079    8.6124 C.3     1  UNL1        0.0297
@<TRIPOS>UNITY_ATOM_ATTR
27 1
charge -1
@<TRIPOS>BOND
     1     1     2    1
     2     2     3   ar
     3     3     4   ar
     4     4     5   ar
     5     5     6   ar
     6     6     7   ar
     7     7     8   ar
     8     8     9   ar
     9     9    10   ar
    10    10    12    1
    11    12    13   ar
    12    13    14   ar
    13    14    15   ar
    14    15    16   ar
    15    16    17   ar
    16    17    18   ar
    17    18    19   ar
    18    19    20   ar
    19    20    21   ar
    20    17    22    1
    21    22    23    1
    22    23    24    1
    23    10    11   ar
    24    11    25    1
    25    25    29    1
    26    29    30    1
    27    30    31    1
    28    30    32    1
    29    30    33    1
    30    25    26    1
    31    26    27   ar
    32    26    28   ar
    33    11     2   ar
    34     9     4   ar
    35    21    12   ar
    36    24    15    1
    37    21    16   ar
@<TRIPOS>MOLECULE
*****
 33 37 0 0 0
SMALL
GASTEIGER

@<TRIPOS>ATOM
      1 C          61.7082   89.3613    9.3182 C.3     1  UNL1        0.0518
      2 C          62.3143   88.6177   10.4714 C.ar    1  UNL1        0.0580
      3 N          62.8853   89.3736   11.6343 N.ar    1  UNL1       -0.2499
      4 C          63.4914   88.6301   12.7874 C.ar    1  UNL1        0.0809
      5 C          64.0623   89.3861   13.9504 C.ar    1  UNL1        0.0191
      6 C          64.6684   88.6424   15.1036 C.ar    1  UNL1        0.0015
      7 C          64.7036   87.1429   15.0937 C.ar    1  UNL1        0.0001
      8 C          64.1326   86.3869   13.9308 C.ar    1  UNL1        0.0015
      9 C          63.5265   87.1305   12.7776 C.ar    1  UNL1        0.0175
     10 C          62.9556   86.3745   11.6147 C.ar    1  UNL1        0.0027
     11 C          62.3495   87.1181   10.4615 C.ar    1  UNL1        0.0235
     12 C          62.9907   84.8750   11.6048 C.ar    1  UNL1        0.0177
     13 C          63.4272   84.1431   10.3704 C.ar    1  UNL1        0.0046
     14 C          63.4624   82.6436   10.3605 C.ar    1  UNL1        0.0370
     15 C          63.0610   81.8758   11.5851 C.ar    1  UNL1        0.1396
     16 C          62.6245   82.6077   12.8196 C.ar    1  UNL1        0.0478
     17 C          62.2231   81.8401   14.0441 C.ar    1  UNL1       -0.0125
     18 C          61.7866   82.5720   15.2785 C.ar    1  UNL1        0.0166
     19 C          61.7515   84.0715   15.2884 C.ar    1  UNL1        0.0985
     20 N          62.1528   84.8393   14.0638 N.ar    1  UNL1       -0.2438
     21 C          62.5894   84.1074   12.8294 C.ar    1  UNL1        0.0839
     22 C          62.2582   80.3405   14.0343 C.3     1  UNL1        0.0738
     23 C          62.6947   79.6086   12.7999 C.3     1  UNL1        0.2101
     24 O          63.0961   80.3763   11.5753 O.3     1  UNL1       -0.4751
     25 C          61.7785   86.3622    9.2985 C.3     1  UNL1        0.1744
     26 C          62.6859   85.8445    8.2222 C.2     1  UNL1        0.0816
     27 O          62.1710   84.8560    7.2182 O.co2   1  UNL1       -0.5464
     28 O          64.1083   86.3153    8.1497 O.co2   1  UNL1       -0.5464
     29 O          60.3000   86.1239    9.2119 O.3     1  UNL1       -0.3510
     30 C          59.4467   87.0093    8.3530 C.3     1  UNL1        0.0938
     31 C          59.7023   86.1145    7.1766 C.3     1  UNL1        0.0297
     32 C          59.1911   87.9041    9.5294 C.3     1  UNL1        0.0297
     33 C          58.5934   87.8948    7.4940 C.3     1  UNL1        0.0297
@<TRIPOS>UNITY_ATOM_ATTR
27 1
charge -1
@<TRIPOS>BOND
     1     1     2    1
     2     2     3   ar
     3     3     4   ar
     4     4     5   ar
     5     5     6   ar
     6     6     7   ar
     7     7     8   ar
     8     8     9   ar
     9     9    10   ar
    10    10    12    1
    11    12    13   ar
    12    13    14   ar
    13    14    15   ar
    14    15    16   ar
    15    16    17   ar
    16    17    18   ar
    17    18    19   ar
    18    19    20   ar
    19    20    21   ar
    20    17    22    1
    21    22    23    1
    22    23    24    1
    23    10    11   ar
    24    11    25    1
    25    25    29    1
    26    29    30    1
    27    30    31    1
    28    30    32    1
    29    30    33    1
    30    25    26    1
    31    26    27   ar
    32    26    28   ar
    33    11     2   ar
    34     9     4   ar
    35    21    12   ar
    36    24    15    1
    37    21    16   ar
