@<TRIPOS>MOLECULE
*****
 37 41 0 0 0
SMALL
GASTEIGER

@<TRIPOS>ATOM
      1 C          63.0578   88.9412   12.3393 C.3     1  UNL1        0.1628
      2 N          63.9235   89.9283   13.0647 N.ar    1  UNL1       -0.3047
      3 C          64.2959   89.8744   14.5167 C.ar    1  UNL1        0.1441
      4 N          65.1714   91.0554   14.8148 N.ar    1  UNL1       -0.2267
      5 C          65.3401   91.8391   13.5470 C.ar    1  UNL1        0.1010
      6 C          66.0963   93.0970   13.2377 C.ar    1  UNL1        0.0526
      7 C          66.0812   93.6584   11.8469 C.ar    1  UNL1        0.1690
      8 F          66.8375   94.9164   11.5375 F       1  UNL1       -0.2017
      9 C          65.3100   92.9618   10.7652 C.ar    1  UNL1        0.1689
     10 F          65.2950   93.5233    9.3743 F       1  UNL1       -0.2017
     11 C          64.5538   91.7039   11.0745 C.ar    1  UNL1        0.0507
     12 C          64.5688   91.1425   12.4654 C.ar    1  UNL1        0.0816
     13 C          63.8680   88.8240   15.4983 C.ar    1  UNL1        0.0342
     14 C          64.2774   87.3955   15.2942 C.ar    1  UNL1        0.0039
     15 C          63.8495   86.3451   16.2758 C.ar    1  UNL1        0.0115
     16 C          63.0122   86.7232   17.4615 C.ar    1  UNL1        0.0577
     17 CL         62.5842   85.6728   18.4431 Cl      1  UNL1       -0.0822
     18 C          62.6028   88.1517   17.6656 C.ar    1  UNL1        0.0115
     19 C          63.0307   89.2021   16.6840 C.ar    1  UNL1        0.0039
     20 C          61.9409   89.4251   11.4628 C.3     1  UNL1        0.0297
     21 C          62.0161   89.2326    9.9771 C.3     1  UNL1        0.0024
     22 C          60.8992   89.7165    9.1005 C.3     1  UNL1        0.0001
     23 C          59.7070   90.3930    9.7097 C.3     1  UNL1        0.0000
     24 C          59.6318   90.5855   11.1954 C.3     1  UNL1        0.0001
     25 C          60.7487   90.1016   12.0720 C.3     1  UNL1        0.0024
     26 O          64.4308   86.6583   13.0670 O.2     1  UNL1       -0.2731
     27 C          63.3090   87.4700   12.4904 C.2     1  UNL1        0.2431
     28 N          62.2939   86.4814   11.9981 N.am    1  UNL1       -0.3044
     29 H          61.4629   86.7981   11.5758 H       1  UNL1        0.1494
     30 C          62.5452   85.0104   12.1493 C.3     1  UNL1        0.0718
     31 C          62.3604   84.3513   13.4840 C.3     1  UNL1        0.0220
     32 C          62.6116   82.8801   13.6352 C.3     1  UNL1        0.0309
     33 C          63.0476   82.0682   12.4517 C.3     1  UNL1        0.1106
     34 O          63.2989   80.5972   12.6028 O.3     1  UNL1       -0.3845
     35 C          63.2324   82.7274   11.1170 C.3     1  UNL1        0.0309
     36 C          62.9812   84.1985   10.9658 C.3     1  UNL1        0.0220
     37 H          63.5716   80.2263   11.7490 H       1  UNL1        0.2103
@<TRIPOS>BOND
     1    26    27    2
     2    27    28   am
     3    30    28    1
     4    30    31    1
     5    31    32    1
     6    32    33    1
     7    33    34    1
     8    33    35    1
     9    35    36    1
    10    27     1    1
    11     1    20    1
    12    20    21    1
    13    21    22    1
    14    22    23    1
    15    23    24    1
    16    24    25    1
    17     1     2    1
    18     2     3   ar
    19     3    13    1
    20    13    14   ar
    21    14    15   ar
    22    15    16   ar
    23    16    17    1
    24    16    18   ar
    25    18    19   ar
    26     3     4   ar
    27     4     5   ar
    28     5     6   ar
    29     6     7   ar
    30     7     8    1
    31     7     9   ar
    32     9    10    1
    33     9    11   ar
    34    11    12   ar
    35    36    30    1
    36    25    20    1
    37    12     2   ar
    38    19    13   ar
    39    12     5   ar
    40    28    29    1
    41    34    37    1
@<TRIPOS>MOLECULE
*****
 37 41 0 0 0
SMALL
GASTEIGER

@<TRIPOS>ATOM
      1 C          60.1350   94.3541   -2.7159 C.3     1  UNL1        0.1628
      2 N          59.9673   94.1611   -1.2378 N.ar    1  UNL1       -0.3047
      3 C          58.6943   94.3382   -0.4643 C.ar    1  UNL1        0.1441
      4 N          58.9835   94.0437    0.9778 N.ar    1  UNL1       -0.2267
      5 C          60.4351   93.6846    1.0956 C.ar    1  UNL1        0.1010
      6 C          61.2818   93.3009    2.2728 C.ar    1  UNL1        0.0526
      7 C          62.7365   92.9897    2.0806 C.ar    1  UNL1        0.1690
      8 F          63.5833   92.6060    3.2579 F       1  UNL1       -0.2017
      9 C          63.3445   93.0623    0.7113 C.ar    1  UNL1        0.1689
     10 F          64.7993   92.7511    0.5192 F       1  UNL1       -0.2017
     11 C          62.4978   93.4460   -0.4659 C.ar    1  UNL1        0.0507
     12 C          61.0431   93.7571   -0.2738 C.ar    1  UNL1        0.0816
     13 C          57.3656   94.7394   -1.0331 C.ar    1  UNL1        0.0342
     14 C          56.3344   93.6941   -1.3394 C.ar    1  UNL1        0.0039
     15 C          55.0057   94.0952   -1.9081 C.ar    1  UNL1        0.0115
     16 C          54.7081   95.5418   -2.1706 C.ar    1  UNL1        0.0577
     17 CL         53.3793   95.9430   -2.7393 Cl      1  UNL1       -0.0822
     18 C          55.7393   96.5871   -1.8643 C.ar    1  UNL1        0.0115
     19 C          57.0680   96.1859   -1.2955 C.ar    1  UNL1        0.0039
     20 C          61.4082   94.9337   -3.2569 C.3     1  UNL1        0.0297
     21 C          61.8819   96.2760   -2.7836 C.3     1  UNL1        0.0024
     22 C          63.1552   96.8556   -3.3246 C.3     1  UNL1        0.0001
     23 C          63.9548   96.0930   -4.3390 C.3     1  UNL1        0.0000
     24 C          63.4812   94.7508   -4.8123 C.3     1  UNL1        0.0001
     25 C          62.2079   94.1711   -4.2713 C.3     1  UNL1        0.0024
     26 O          58.1437   94.7321   -4.5916 O.2     1  UNL1       -0.2731
     27 C          59.0293   93.9674   -3.6530 C.2     1  UNL1        0.2431
     28 N          58.6179   92.5301   -3.7751 N.am    1  UNL1       -0.3044
     29 H          59.0735   91.8405   -3.2402 H       1  UNL1        0.1494
     30 C          57.5122   92.1436   -4.7121 C.3     1  UNL1        0.0718
     31 C          56.3242   91.3857   -4.1981 C.3     1  UNL1        0.0220
     32 C          55.2184   90.9991   -5.1352 C.3     1  UNL1        0.0309
     33 C          55.3008   91.3703   -6.5862 C.3     1  UNL1        0.1106
     34 O          54.1952   90.9838   -7.5232 O.3     1  UNL1       -0.3845
     35 C          56.4889   92.1282   -7.1001 C.3     1  UNL1        0.0309
     36 C          57.5946   92.5148   -6.1631 C.3     1  UNL1        0.0220
     37 H          54.4041   91.2979   -8.4168 H       1  UNL1        0.2103
@<TRIPOS>BOND
     1    26    27    2
     2    27    28   am
     3    30    28    1
     4    30    31    1
     5    31    32    1
     6    32    33    1
     7    33    34    1
     8    33    35    1
     9    35    36    1
    10    27     1    1
    11     1    20    1
    12    20    21    1
    13    21    22    1
    14    22    23    1
    15    23    24    1
    16    24    25    1
    17     1     2    1
    18     2     3   ar
    19     3    13    1
    20    13    14   ar
    21    14    15   ar
    22    15    16   ar
    23    16    17    1
    24    16    18   ar
    25    18    19   ar
    26     3     4   ar
    27     4     5   ar
    28     5     6   ar
    29     6     7   ar
    30     7     8    1
    31     7     9   ar
    32     9    10    1
    33     9    11   ar
    34    11    12   ar
    35    36    30    1
    36    25    20    1
    37    12     2   ar
    38    19    13   ar
    39    12     5   ar
    40    28    29    1
    41    34    37    1
@<TRIPOS>MOLECULE
*****
 37 41 0 0 0
SMALL
GASTEIGER

@<TRIPOS>ATOM
      1 C          63.3697   87.8874   13.6155 C.3     1  UNL1        0.1628
      2 N          63.6510   89.1891   12.9252 N.ar    1  UNL1       -0.3047
      3 C          63.0048   89.6745   11.6616 C.ar    1  UNL1        0.1441
      4 N          63.5823   91.0193   11.3327 N.ar    1  UNL1       -0.2267
      5 C          64.5855   91.3649   12.3930 C.ar    1  UNL1        0.1010
      6 C          65.4657   92.5634   12.5895 C.ar    1  UNL1        0.0526
      7 C          66.3884   92.6307   13.7702 C.ar    1  UNL1        0.1690
      8 F          67.2687   93.8293   13.9667 F       1  UNL1       -0.2017
      9 C          66.4308   91.4996   14.7544 C.ar    1  UNL1        0.1689
     10 F          67.3536   91.5670   15.9352 F       1  UNL1       -0.2017
     11 C          65.5506   90.3011   14.5579 C.ar    1  UNL1        0.0507
     12 C          64.6279   90.2337   13.3773 C.ar    1  UNL1        0.0816
     13 C          61.9638   88.9437   10.8664 C.ar    1  UNL1        0.0342
     14 C          62.3486   88.2281    9.6056 C.ar    1  UNL1        0.0039
     15 C          61.3077   87.4972    8.8105 C.ar    1  UNL1        0.0115
     16 C          59.8819   87.4819    9.2762 C.ar    1  UNL1        0.0577
     17 CL         58.8410   86.7510    8.4811 Cl      1  UNL1       -0.0822
     18 C          59.4971   88.1975   10.5370 C.ar    1  UNL1        0.0115
     19 C          60.5381   88.9284   11.3322 C.ar    1  UNL1        0.0039
     20 C          63.2732   87.8374   15.1115 C.3     1  UNL1        0.0297
     21 C          63.1086   89.1057   15.8954 C.3     1  UNL1        0.0024
     22 C          63.0121   89.0557   17.3914 C.3     1  UNL1        0.0001
     23 C          63.0803   87.7373   18.1037 C.3     1  UNL1        0.0000
     24 C          63.2450   86.4691   17.3199 C.3     1  UNL1        0.0001
     25 C          63.3414   86.5191   15.8239 C.3     1  UNL1        0.0024
     26 O          62.3968   86.2951   11.5797 O.2     1  UNL1       -0.2731
     27 C          63.1848   86.6357   12.8098 C.2     1  UNL1        0.2431
     28 N          63.8864   85.3730   13.2141 N.am    1  UNL1       -0.3044
     29 H          64.4682   85.3658   14.0082 H       1  UNL1        0.1494
     30 C          63.7014   84.1214   12.4083 C.3     1  UNL1        0.0718
     31 C          62.7358   83.0696   12.8678 C.3     1  UNL1        0.0220
     32 C          62.5508   81.8179   12.0621 C.3     1  UNL1        0.0309
     33 C          63.3314   81.6181   10.7969 C.3     1  UNL1        0.1106
     34 O          63.1465   80.3665    9.9912 O.3     1  UNL1       -0.3845
     35 C          64.2971   82.6700   10.3375 C.3     1  UNL1        0.0309
     36 C          64.4821   83.9216   11.1432 C.3     1  UNL1        0.0220
     37 H          63.7214   80.3966    9.2105 H       1  UNL1        0.2103
@<TRIPOS>BOND
     1    26    27    2
     2    27    28   am
     3    30    28    1
     4    30    31    1
     5    31    32    1
     6    32    33    1
     7    33    34    1
     8    33    35    1
     9    35    36    1
    10    27     1    1
    11     1    20    1
    12    20    21    1
    13    21    22    1
    14    22    23    1
    15    23    24    1
    16    24    25    1
    17     1     2    1
    18     2     3   ar
    19     3    13    1
    20    13    14   ar
    21    14    15   ar
    22    15    16   ar
    23    16    17    1
    24    16    18   ar
    25    18    19   ar
    26     3     4   ar
    27     4     5   ar
    28     5     6   ar
    29     6     7   ar
    30     7     8    1
    31     7     9   ar
    32     9    10    1
    33     9    11   ar
    34    11    12   ar
    35    36    30    1
    36    25    20    1
    37    12     2   ar
    38    19    13   ar
    39    12     5   ar
    40    28    29    1
    41    34    37    1
@<TRIPOS>MOLECULE
*****
 37 41 0 0 0
SMALL
GASTEIGER

@<TRIPOS>ATOM
      1 C          62.0648   88.3690   11.9940 C.3     1  UNL1        0.1628
      2 N          62.1768   86.9859   11.4244 N.ar    1  UNL1       -0.3047
      3 C          61.6251   86.5276   10.1070 C.ar    1  UNL1        0.1441
      4 N          61.9675   85.0767    9.9406 N.ar    1  UNL1       -0.2267
      5 C          62.7309   84.6384   11.1551 C.ar    1  UNL1        0.1010
      6 C          63.3250   83.3172   11.5445 C.ar    1  UNL1        0.0526
      7 C          64.0484   83.1760   12.8509 C.ar    1  UNL1        0.1690
      8 F          64.6425   81.8548   13.2403 F       1  UNL1       -0.2017
      9 C          64.1778   84.3560   13.7679 C.ar    1  UNL1        0.1689
     10 F          64.9012   84.2148   15.0743 F       1  UNL1       -0.2017
     11 C          63.5837   85.6772   13.3785 C.ar    1  UNL1        0.0507
     12 C          62.8603   85.8183   12.0721 C.ar    1  UNL1        0.0816
     13 C          60.8644   87.3719    9.1279 C.ar    1  UNL1        0.0342
     14 C          59.7515   86.7686    8.3233 C.ar    1  UNL1        0.0039
     15 C          58.9908   87.6129    7.3442 C.ar    1  UNL1        0.0115
     16 C          59.3431   89.0605    7.1698 C.ar    1  UNL1        0.0577
     17 CL         58.5824   89.9048    6.1907 Cl      1  UNL1       -0.0822
     18 C          60.4560   89.6637    7.9744 C.ar    1  UNL1        0.0115
     19 C          61.2166   88.8194    8.9535 C.ar    1  UNL1        0.0039
     20 C          60.7461   89.0834   11.9751 C.3     1  UNL1        0.0297
     21 C          60.6568   90.4791   11.4324 C.3     1  UNL1        0.0024
     22 C          59.3381   91.1936   11.4135 C.3     1  UNL1        0.0001
     23 C          58.1085   90.5124   11.9373 C.3     1  UNL1        0.0000
     24 C          58.1978   89.1169   12.4799 C.3     1  UNL1        0.0001
     25 C          59.5165   88.4024   12.4988 C.3     1  UNL1        0.0024
     26 O          64.3863   88.5782   13.4750 O.2     1  UNL1       -0.2731
     27 C          63.2717   89.0378   12.5826 C.2     1  UNL1        0.2431
     28 N          63.5426   90.4848   12.2946 N.am    1  UNL1       -0.3044
     29 H          62.9283   90.9956   11.7193 H       1  UNL1        0.1494
     30 C          64.7494   91.1534   12.8832 C.3     1  UNL1        0.0718
     31 C          65.0752   90.9690   14.3357 C.3     1  UNL1        0.0220
     32 C          66.2821   91.6376   14.9244 C.3     1  UNL1        0.0309
     33 C          67.1631   92.4906   14.0605 C.3     1  UNL1        0.1106
     34 O          68.3699   93.1593   14.6491 O.3     1  UNL1       -0.3845
     35 C          66.8371   92.6750   12.6080 C.3     1  UNL1        0.0309
     36 C          65.6303   92.0064   12.0193 C.3     1  UNL1        0.0220
     37 H          68.8254   93.6686   13.9606 H       1  UNL1        0.2103
@<TRIPOS>BOND
     1    26    27    2
     2    27    28   am
     3    30    28    1
     4    30    31    1
     5    31    32    1
     6    32    33    1
     7    33    34    1
     8    33    35    1
     9    35    36    1
    10    27     1    1
    11     1    20    1
    12    20    21    1
    13    21    22    1
    14    22    23    1
    15    23    24    1
    16    24    25    1
    17     1     2    1
    18     2     3   ar
    19     3    13    1
    20    13    14   ar
    21    14    15   ar
    22    15    16   ar
    23    16    17    1
    24    16    18   ar
    25    18    19   ar
    26     3     4   ar
    27     4     5   ar
    28     5     6   ar
    29     6     7   ar
    30     7     8    1
    31     7     9   ar
    32     9    10    1
    33     9    11   ar
    34    11    12   ar
    35    36    30    1
    36    25    20    1
    37    12     2   ar
    38    19    13   ar
    39    12     5   ar
    40    28    29    1
    41    34    37    1
@<TRIPOS>MOLECULE
*****
 37 41 0 0 0
SMALL
GASTEIGER

@<TRIPOS>ATOM
      1 C          58.4657   93.6393   -2.1543 C.3     1  UNL1        0.1628
      2 N          58.8405   94.8018   -3.0250 N.ar    1  UNL1       -0.3047
      3 C          57.9218   95.8992   -3.4741 C.ar    1  UNL1        0.1441
      4 N          58.7133   96.8466   -4.3262 N.ar    1  UNL1       -0.2267
      5 C          60.1211   96.3347   -4.4037 C.ar    1  UNL1        0.1010
      6 C          61.3416   96.8560   -5.1027 C.ar    1  UNL1        0.0526
      7 C          62.6407   96.1136   -4.9974 C.ar    1  UNL1        0.1690
      8 F          63.8613   96.6349   -5.6964 F       1  UNL1       -0.2017
      9 C          62.7193   94.8498   -4.1933 C.ar    1  UNL1        0.1689
     10 F          64.0185   94.1073   -4.0880 F       1  UNL1       -0.2017
     11 C          61.4988   94.3285   -3.4943 C.ar    1  UNL1        0.0507
     12 C          60.1997   95.0709   -3.5995 C.ar    1  UNL1        0.0816
     13 C          56.4671   96.0269   -3.1313 C.ar    1  UNL1        0.0342
     14 C          56.0557   96.4446   -1.7507 C.ar    1  UNL1        0.0039
     15 C          54.6010   96.5723   -1.4079 C.ar    1  UNL1        0.0115
     16 C          53.5577   96.2822   -2.4458 C.ar    1  UNL1        0.0577
     17 CL         52.1029   96.4098   -2.1030 Cl      1  UNL1       -0.0822
     18 C          53.9690   95.8644   -3.8264 C.ar    1  UNL1        0.0115
     19 C          55.4237   95.7367   -4.1692 C.ar    1  UNL1        0.0039
     20 C          59.2209   93.3790   -0.8847 C.3     1  UNL1        0.0297
     21 C          60.1613   92.2136   -0.7969 C.3     1  UNL1        0.0024
     22 C          60.9166   91.9532    0.4726 C.3     1  UNL1        0.0001
     23 C          60.7314   92.8583    1.6545 C.3     1  UNL1        0.0000
     24 C          59.7910   94.0236    1.5667 C.3     1  UNL1        0.0001
     25 C          59.0358   94.2839    0.2971 C.3     1  UNL1        0.0024
     26 O          56.0677   92.2966   -1.8835 O.2     1  UNL1       -0.2731
     27 C          57.3356   92.7370   -2.5531 C.2     1  UNL1        0.2431
     28 N          57.3521   92.0616   -3.8924 N.am    1  UNL1       -0.3044
     29 H          58.1045   92.2104   -4.5096 H       1  UNL1        0.1494
     30 C          56.2220   91.1594   -4.2911 C.3     1  UNL1        0.0718
     31 C          55.6830   90.1562   -3.3149 C.3     1  UNL1        0.0220
     32 C          54.5529   89.2539   -3.7136 C.3     1  UNL1        0.0309
     33 C          53.9619   89.3549   -5.0885 C.3     1  UNL1        0.1106
     34 O          52.8319   88.4527   -5.4873 O.3     1  UNL1       -0.3845
     35 C          54.5010   90.3582   -6.0647 C.3     1  UNL1        0.0309
     36 C          55.6310   91.2604   -5.6661 C.3     1  UNL1        0.0220
     37 H          52.5700   88.6470   -6.4009 H       1  UNL1        0.2103
@<TRIPOS>BOND
     1    26    27    2
     2    27    28   am
     3    30    28    1
     4    30    31    1
     5    31    32    1
     6    32    33    1
     7    33    34    1
     8    33    35    1
     9    35    36    1
    10    27     1    1
    11     1    20    1
    12    20    21    1
    13    21    22    1
    14    22    23    1
    15    23    24    1
    16    24    25    1
    17     1     2    1
    18     2     3   ar
    19     3    13    1
    20    13    14   ar
    21    14    15   ar
    22    15    16   ar
    23    16    17    1
    24    16    18   ar
    25    18    19   ar
    26     3     4   ar
    27     4     5   ar
    28     5     6   ar
    29     6     7   ar
    30     7     8    1
    31     7     9   ar
    32     9    10    1
    33     9    11   ar
    34    11    12   ar
    35    36    30    1
    36    25    20    1
    37    12     2   ar
    38    19    13   ar
    39    12     5   ar
    40    28    29    1
    41    34    37    1
@<TRIPOS>MOLECULE
*****
 37 41 0 0 0
SMALL
GASTEIGER

@<TRIPOS>ATOM
      1 C          61.5046   94.2031   -1.4966 C.3     1  UNL1        0.1628
      2 N          60.5716   94.3035   -2.6669 N.ar    1  UNL1       -0.3047
      3 C          60.9542   94.1836   -4.1123 C.ar    1  UNL1        0.1441
      4 N          59.7113   94.3474   -4.9358 N.ar    1  UNL1       -0.2267
      5 C          58.5605   94.5685   -3.9994 C.ar    1  UNL1        0.1010
      6 C          57.0972   94.7911   -4.2425 C.ar    1  UNL1        0.0526
      7 C          56.1656   94.9866   -3.0833 C.ar    1  UNL1        0.1690
      8 F          54.7022   95.2092   -3.3263 F       1  UNL1       -0.2017
      9 C          56.6974   94.9595   -1.6809 C.ar    1  UNL1        0.1689
     10 F          55.7657   95.1549   -0.5216 F       1  UNL1       -0.2017
     11 C          58.1607   94.7369   -1.4379 C.ar    1  UNL1        0.0507
     12 C          59.0922   94.5414   -2.5971 C.ar    1  UNL1        0.0816
     13 C          62.3369   93.9422   -4.6413 C.ar    1  UNL1        0.0342
     14 C          62.8974   94.8334   -5.7097 C.ar    1  UNL1        0.0039
     15 C          64.2801   94.5920   -6.2387 C.ar    1  UNL1        0.0115
     16 C          65.1024   93.4595   -5.6992 C.ar    1  UNL1        0.0577
     17 CL         66.4851   93.2181   -6.2282 Cl      1  UNL1       -0.0822
     18 C          64.5420   92.5683   -4.6307 C.ar    1  UNL1        0.0115
     19 C          63.1592   92.8096   -4.1018 C.ar    1  UNL1        0.0039
     20 C          62.8127   94.9368   -1.5152 C.3     1  UNL1        0.0297
     21 C          63.9385   94.4853   -0.6326 C.3     1  UNL1        0.0024
     22 C          65.2467   95.2189   -0.6511 C.3     1  UNL1        0.0001
     23 C          65.4291   96.4042   -1.5522 C.3     1  UNL1        0.0000
     24 C          64.3034   96.8557   -2.4348 C.3     1  UNL1        0.0001
     25 C          62.9952   96.1220   -2.4162 C.3     1  UNL1        0.0024
     26 O          60.4311   92.0524   -0.1370 O.2     1  UNL1       -0.2731
     27 C          61.1294   93.3689   -0.3077 C.2     1  UNL1        0.2431
     28 N          61.4687   93.8392    1.0757 N.am    1  UNL1       -0.3044
     29 H          61.9377   94.6954    1.2033 H       1  UNL1        0.1494
     30 C          61.0935   93.0051    2.2645 C.3     1  UNL1        0.0718
     31 C          59.7081   93.0904    2.8333 C.3     1  UNL1        0.0220
     32 C          59.3328   92.2561    4.0222 C.3     1  UNL1        0.0309
     33 C          60.3429   91.3367    4.6422 C.3     1  UNL1        0.1106
     34 O          59.9677   90.5025    5.8310 O.3     1  UNL1       -0.3845
     35 C          61.7282   91.2515    4.0733 C.3     1  UNL1        0.0309
     36 C          62.1035   92.0856    2.8845 C.3     1  UNL1        0.0220
     37 H          60.7300   89.9691    6.1052 H       1  UNL1        0.2103
@<TRIPOS>BOND
     1    26    27    2
     2    27    28   am
     3    30    28    1
     4    30    31    1
     5    31    32    1
     6    32    33    1
     7    33    34    1
     8    33    35    1
     9    35    36    1
    10    27     1    1
    11     1    20    1
    12    20    21    1
    13    21    22    1
    14    22    23    1
    15    23    24    1
    16    24    25    1
    17     1     2    1
    18     2     3   ar
    19     3    13    1
    20    13    14   ar
    21    14    15   ar
    22    15    16   ar
    23    16    17    1
    24    16    18   ar
    25    18    19   ar
    26     3     4   ar
    27     4     5   ar
    28     5     6   ar
    29     6     7   ar
    30     7     8    1
    31     7     9   ar
    32     9    10    1
    33     9    11   ar
    34    11    12   ar
    35    36    30    1
    36    25    20    1
    37    12     2   ar
    38    19    13   ar
    39    12     5   ar
    40    28    29    1
    41    34    37    1
@<TRIPOS>MOLECULE
*****
 37 41 0 0 0
SMALL
GASTEIGER

@<TRIPOS>ATOM
      1 C          62.9192   88.7143   12.0994 C.3     1  UNL1        0.1628
      2 N          63.4790   87.6526   12.9990 N.ar    1  UNL1       -0.3047
      3 C          64.1130   87.8772   14.3398 C.ar    1  UNL1        0.1441
      4 N          64.5288   86.5431   14.8851 N.ar    1  UNL1       -0.2267
      5 C          64.1519   85.4941   13.8815 C.ar    1  UNL1        0.1010
      6 C          64.3157   84.0031   13.8784 C.ar    1  UNL1        0.0526
      7 C          63.8306   83.1977   12.7096 C.ar    1  UNL1        0.1690
      8 F          63.9943   81.7067   12.7065 F       1  UNL1       -0.2017
      9 C          63.1817   83.8834   11.5439 C.ar    1  UNL1        0.1689
     10 F          62.6966   83.0780   10.3751 F       1  UNL1       -0.2017
     11 C          63.0180   85.3744   11.5470 C.ar    1  UNL1        0.0507
     12 C          63.5031   86.1797   12.7158 C.ar    1  UNL1        0.0816
     13 C          64.2985   89.2030   15.0164 C.ar    1  UNL1        0.0342
     14 C          65.5092   90.0357   14.7153 C.ar    1  UNL1        0.0039
     15 C          65.6947   91.3615   15.3919 C.ar    1  UNL1        0.0115
     16 C          64.6695   91.8546   16.3695 C.ar    1  UNL1        0.0577
     17 CL         64.8551   93.1805   17.0461 Cl      1  UNL1       -0.0822
     18 C          63.4588   91.0219   16.6706 C.ar    1  UNL1        0.0115
     19 C          63.2733   89.6961   15.9940 C.ar    1  UNL1        0.0039
     20 C          61.8478   88.3692   11.1081 C.3     1  UNL1        0.0297
     21 C          60.4041   88.5642   11.4657 C.3     1  UNL1        0.0024
     22 C          59.3326   88.2191   10.4744 C.3     1  UNL1        0.0001
     23 C          59.7047   87.6789    9.1254 C.3     1  UNL1        0.0000
     24 C          61.1483   87.4839    8.7678 C.3     1  UNL1        0.0001
     25 C          62.2199   87.8290    9.7591 C.3     1  UNL1        0.0024
     26 O          63.0814   91.3038   13.0455 O.2     1  UNL1       -0.2731
     27 C          63.4310   90.1214   12.1912 C.2     1  UNL1        0.2431
     28 N          64.5358   90.5783   11.2852 N.am    1  UNL1       -0.3044
     29 H          64.9251   89.9546   10.6304 H       1  UNL1        0.1494
     30 C          65.0475   91.9853   11.3770 C.3     1  UNL1        0.0718
     31 C          65.8159   92.4263   12.5874 C.3     1  UNL1        0.0220
     32 C          66.3276   93.8334   12.6793 C.3     1  UNL1        0.0309
     33 C          66.0709   94.7994   11.5608 C.3     1  UNL1        0.1106
     34 O          66.5825   96.2064   11.6526 O.3     1  UNL1       -0.3845
     35 C          65.3024   94.3582   10.3505 C.3     1  UNL1        0.0309
     36 C          64.7907   92.9512   10.2586 C.3     1  UNL1        0.0220
     37 H          66.3319   96.6944   10.8526 H       1  UNL1        0.2103
@<TRIPOS>BOND
     1    26    27    2
     2    27    28   am
     3    30    28    1
     4    30    31    1
     5    31    32    1
     6    32    33    1
     7    33    34    1
     8    33    35    1
     9    35    36    1
    10    27     1    1
    11     1    20    1
    12    20    21    1
    13    21    22    1
    14    22    23    1
    15    23    24    1
    16    24    25    1
    17     1     2    1
    18     2     3   ar
    19     3    13    1
    20    13    14   ar
    21    14    15   ar
    22    15    16   ar
    23    16    17    1
    24    16    18   ar
    25    18    19   ar
    26     3     4   ar
    27     4     5   ar
    28     5     6   ar
    29     6     7   ar
    30     7     8    1
    31     7     9   ar
    32     9    10    1
    33     9    11   ar
    34    11    12   ar
    35    36    30    1
    36    25    20    1
    37    12     2   ar
    38    19    13   ar
    39    12     5   ar
    40    28    29    1
    41    34    37    1
@<TRIPOS>MOLECULE
*****
 37 41 0 0 0
SMALL
GASTEIGER

@<TRIPOS>ATOM
      1 C          60.4878   94.3354   -2.4490 C.3     1  UNL1        0.1628
      2 N          60.3268   93.9639   -1.0046 N.ar    1  UNL1       -0.3047
      3 C          59.0419   93.9697   -0.2307 C.ar    1  UNL1        0.1441
      4 N          59.3436   93.5308    1.1716 N.ar    1  UNL1       -0.2267
      5 C          60.8149   93.2537    1.2643 C.ar    1  UNL1        0.1010
      6 C          61.6797   92.7923    2.3996 C.ar    1  UNL1        0.0526
      7 C          63.1523   92.5985    2.1900 C.ar    1  UNL1        0.1690
      8 F          64.0172   92.1371    3.3253 F       1  UNL1       -0.2017
      9 C          63.7600   92.8662    0.8449 C.ar    1  UNL1        0.1689
     10 F          65.2326   92.6725    0.6353 F       1  UNL1       -0.2017
     11 C          62.8951   93.3277   -0.2904 C.ar    1  UNL1        0.0507
     12 C          61.4225   93.5214   -0.0807 C.ar    1  UNL1        0.0816
     13 C          57.6924   94.3480   -0.7651 C.ar    1  UNL1        0.0342
     14 C          57.2988   95.7927   -0.8537 C.ar    1  UNL1        0.0039
     15 C          55.9492   96.1710   -1.3881 C.ar    1  UNL1        0.0115
     16 C          54.9933   95.1045   -1.8340 C.ar    1  UNL1        0.0577
     17 CL         53.6438   95.4828   -2.3685 Cl      1  UNL1       -0.0822
     18 C          55.3869   93.6598   -1.7454 C.ar    1  UNL1        0.0115
     19 C          56.7364   93.2816   -1.2110 C.ar    1  UNL1        0.0039
     20 C          61.8217   94.7900   -2.9623 C.3     1  UNL1        0.0297
     21 C          62.3037   96.1802   -2.6702 C.3     1  UNL1        0.0024
     22 C          63.6377   96.6350   -3.1836 C.3     1  UNL1        0.0001
     23 C          64.4899   95.6995   -3.9891 C.3     1  UNL1        0.0000
     24 C          64.0080   94.3094   -4.2812 C.3     1  UNL1        0.0001
     25 C          62.6739   93.8547   -3.7678 C.3     1  UNL1        0.0024
     26 O          58.5974   93.1202   -4.0541 O.2     1  UNL1       -0.2731
     27 C          59.3145   94.2522   -3.3800 C.2     1  UNL1        0.2431
     28 N          58.6102   95.5039   -3.8127 N.am    1  UNL1       -0.3044
     29 H          58.9178   96.3800   -3.4856 H       1  UNL1        0.1494
     30 C          57.4371   95.4206   -4.7437 C.3     1  UNL1        0.0718
     31 C          56.7998   94.0932   -5.0301 C.3     1  UNL1        0.0220
     32 C          55.6265   94.0099   -5.9612 C.3     1  UNL1        0.0309
     33 C          55.0907   95.2538   -6.6058 C.3     1  UNL1        0.1106
     34 O          53.9176   95.1706   -7.5367 O.3     1  UNL1       -0.3845
     35 C          55.7281   96.5811   -6.3192 C.3     1  UNL1        0.0309
     36 C          56.9012   96.6645   -5.3882 C.3     1  UNL1        0.0220
     37 H          53.7005   96.0577   -7.8635 H       1  UNL1        0.2103
@<TRIPOS>BOND
     1    26    27    2
     2    27    28   am
     3    30    28    1
     4    30    31    1
     5    31    32    1
     6    32    33    1
     7    33    34    1
     8    33    35    1
     9    35    36    1
    10    27     1    1
    11     1    20    1
    12    20    21    1
    13    21    22    1
    14    22    23    1
    15    23    24    1
    16    24    25    1
    17     1     2    1
    18     2     3   ar
    19     3    13    1
    20    13    14   ar
    21    14    15   ar
    22    15    16   ar
    23    16    17    1
    24    16    18   ar
    25    18    19   ar
    26     3     4   ar
    27     4     5   ar
    28     5     6   ar
    29     6     7   ar
    30     7     8    1
    31     7     9   ar
    32     9    10    1
    33     9    11   ar
    34    11    12   ar
    35    36    30    1
    36    25    20    1
    37    12     2   ar
    38    19    13   ar
    39    12     5   ar
    40    28    29    1
    41    34    37    1
@<TRIPOS>MOLECULE
*****
 37 41 0 0 0
SMALL
GASTEIGER

@<TRIPOS>ATOM
      1 C          63.3294   90.0895   12.1353 C.3     1  UNL1        0.1628
      2 N          63.8072   88.9622   13.0018 N.ar    1  UNL1       -0.3047
      3 C          64.7630   89.0782   14.1520 C.ar    1  UNL1        0.1441
      4 N          64.9594   87.7086   14.7312 N.ar    1  UNL1       -0.2267
      5 C          64.1251   86.7461   13.9390 C.ar    1  UNL1        0.1010
      6 C          63.9218   85.2643   14.0529 C.ar    1  UNL1        0.0526
      7 C          63.0064   84.5574   13.0978 C.ar    1  UNL1        0.1690
      8 F          62.8031   83.0755   13.2116 F       1  UNL1       -0.2017
      9 C          62.2943   85.3322   12.0289 C.ar    1  UNL1        0.1689
     10 F          61.3788   84.6251   11.0739 F       1  UNL1       -0.2017
     11 C          62.4975   86.8139   11.9151 C.ar    1  UNL1        0.0507
     12 C          63.4129   87.5209   12.8701 C.ar    1  UNL1        0.0816
     13 C          65.4088   90.3419   14.6377 C.ar    1  UNL1        0.0342
     14 C          64.6686   91.2507   15.5736 C.ar    1  UNL1        0.0039
     15 C          65.3145   92.5144   16.0593 C.ar    1  UNL1        0.0115
     16 C          66.7006   92.8693   15.6090 C.ar    1  UNL1        0.0577
     17 CL         67.3465   94.1330   16.0947 Cl      1  UNL1       -0.0822
     18 C          67.4408   91.9604   14.6731 C.ar    1  UNL1        0.0115
     19 C          66.7949   90.6967   14.1874 C.ar    1  UNL1        0.0039
     20 C          61.9814   90.0141   11.4819 C.3     1  UNL1        0.0297
     21 C          60.7392   90.2050   12.3010 C.3     1  UNL1        0.0024
     22 C          59.3911   90.1295   11.6477 C.3     1  UNL1        0.0001
     23 C          59.2850   89.8632   10.1753 C.3     1  UNL1        0.0000
     24 C          60.5271   89.6723    9.3563 C.3     1  UNL1        0.0001
     25 C          61.8753   89.7478   10.0096 C.3     1  UNL1        0.0024
     26 O          64.6786   92.4029   12.8097 O.2     1  UNL1       -0.2731
     27 C          64.1999   91.2925   11.9221 C.2     1  UNL1        0.2431
     28 N          64.7868   91.5631   10.5684 N.am    1  UNL1       -0.3044
     29 H          64.6008   90.9513    9.8199 H       1  UNL1        0.1494
     30 C          65.6572   92.7660   10.3553 C.3     1  UNL1        0.0718
     31 C          65.0895   94.1432   10.5316 C.3     1  UNL1        0.0220
     32 C          65.9599   95.3462   10.3185 C.3     1  UNL1        0.0309
     33 C          67.3979   95.1719    9.9291 C.3     1  UNL1        0.1106
     34 O          68.2683   96.3748    9.7160 O.3     1  UNL1       -0.3845
     35 C          67.9656   93.7947    9.7529 C.3     1  UNL1        0.0309
     36 C          67.0953   92.5918    9.9660 C.3     1  UNL1        0.0220
     37 H          69.1620   96.0880    9.4710 H       1  UNL1        0.2103
@<TRIPOS>BOND
     1    26    27    2
     2    27    28   am
     3    30    28    1
     4    30    31    1
     5    31    32    1
     6    32    33    1
     7    33    34    1
     8    33    35    1
     9    35    36    1
    10    27     1    1
    11     1    20    1
    12    20    21    1
    13    21    22    1
    14    22    23    1
    15    23    24    1
    16    24    25    1
    17     1     2    1
    18     2     3   ar
    19     3    13    1
    20    13    14   ar
    21    14    15   ar
    22    15    16   ar
    23    16    17    1
    24    16    18   ar
    25    18    19   ar
    26     3     4   ar
    27     4     5   ar
    28     5     6   ar
    29     6     7   ar
    30     7     8    1
    31     7     9   ar
    32     9    10    1
    33     9    11   ar
    34    11    12   ar
    35    36    30    1
    36    25    20    1
    37    12     2   ar
    38    19    13   ar
    39    12     5   ar
    40    28    29    1
    41    34    37    1
