@<TRIPOS>MOLECULE
*****
 34 36 0 0 0
SMALL
GASTEIGER

@<TRIPOS>ATOM
      1 C          65.3730   92.3143   12.7916 C.ar    1  UNL1        0.1539
      2 C          65.7229   91.6636   14.0971 C.ar    1  UNL1        0.1013
      3 C          67.1921   91.8547   14.3313 C.ar    1  UNL1        0.0865
      4 C          67.9670   91.3632   15.5178 C.3     1  UNL1        0.0542
      5 N          67.7504   92.6236   13.1706 N.ar    1  UNL1       -0.1681
      6 N          66.6261   92.9077   12.2190 N.ar    1  UNL1       -0.2150
      7 C          66.7357   93.6540   10.9225 C.ar    1  UNL1        0.0842
      8 C          67.5510   93.0880    9.7978 C.ar    1  UNL1        0.0192
      9 C          67.6606   93.8342    8.5013 C.ar    1  UNL1        0.0015
     10 C          66.9548   95.1467    8.3295 C.ar    1  UNL1        0.0001
     11 C          66.1395   95.7128    9.4541 C.ar    1  UNL1        0.0015
     12 C          66.0299   94.9664   10.7506 C.ar    1  UNL1        0.0192
     13 C          64.7706   90.9474   15.0082 C.2     1  UNL1        0.2498
     14 O          64.0052   91.7142   16.0457 O.2     1  UNL1       -0.2700
     15 N          64.5837   89.4644   14.8820 N.am    1  UNL1       -0.3024
     16 H          65.0860   88.9612   14.2011 H       1  UNL1        0.1497
     17 C          63.6314   88.7482   15.7932 C.3     1  UNL1        0.0718
     18 C          62.5834   89.5198   16.5391 C.3     1  UNL1        0.0213
     19 C          63.7272   87.2604   15.9585 C.3     1  UNL1        0.0165
     20 C          62.9415   87.3514   17.2330 C.3     1  UNL1        0.0016
     21 C          64.5129   87.1694   14.6840 C.3     1  UNL1        0.0016
     22 C          63.8231   85.7726   16.1237 C.3     1  UNL1        0.0016
     23 N          64.0096   92.3632   12.1682 N.pl3   1  UNL1       -0.1987
     24 H          63.5245   93.2180   12.1118 H       1  UNL1        0.1753
     25 S          63.3853   91.1096   11.6309 S.O2    1  UNL1        0.0747
     26 O          62.7445   90.8575   12.9634 O.2     1  UNL1       -0.1499
     27 O          64.0261   91.3617   10.2983 O.2     1  UNL1       -0.1499
     28 C          60.8880   86.0951    9.4817 C.3     1  UNL1        0.0310
     29 C          61.5123   87.3487   10.0190 C.ar    1  UNL1       -0.0218
     30 C          62.3773   87.2908   11.2431 C.ar    1  UNL1       -0.0029
     31 C          63.0016   88.5444   11.7804 C.ar    1  UNL1        0.0199
     32 C          62.7610   89.8560   11.0935 C.ar    1  UNL1        0.1252
     33 C          61.8961   89.9140    9.8694 C.ar    1  UNL1        0.0199
     34 C          61.2717   88.6603    9.3321 C.ar    1  UNL1       -0.0029
@<TRIPOS>BOND
     1    28    29    1
     2    29    30   ar
     3    30    31   ar
     4    31    32   ar
     5    32    25    1
     6    25    26    2
     7    25    27    2
     8    25    23    1
     9    23     1    1
    10     1     2   ar
    11     2    13    1
    12    13    14    2
    13    13    15   am
    14    15    17    1
    15    17    18    1
    16    17    19    1
    17    19    20    1
    18    19    21    1
    19    19    22    1
    20     2     3   ar
    21     3     4    1
    22     3     5   ar
    23     5     6   ar
    24     6     7    1
    25     7     8   ar
    26     8     9   ar
    27     9    10   ar
    28    10    11   ar
    29    11    12   ar
    30    32    33   ar
    31    33    34   ar
    32    34    29   ar
    33     6     1   ar
    34    12     7   ar
    35    23    24    1
    36    15    16    1
@<TRIPOS>MOLECULE
*****
 34 36 0 0 0
SMALL
GASTEIGER

@<TRIPOS>ATOM
      1 C          64.5997   91.2455   13.3779 C.ar    1  UNL1        0.1539
      2 C          65.7090   92.1375   12.9045 C.ar    1  UNL1        0.1013
      3 C          66.9611   91.7460   13.6319 C.ar    1  UNL1        0.0865
      4 C          68.3114   92.3776   13.4655 C.3     1  UNL1        0.0542
      5 N          66.6257   90.6120   14.5547 N.ar    1  UNL1       -0.1681
      6 N          65.1663   90.3027   14.3977 N.ar    1  UNL1       -0.2150
      7 C          64.4069   89.2376   15.1317 C.ar    1  UNL1        0.0842
      8 C          64.5416   87.8015   14.7199 C.ar    1  UNL1        0.0192
      9 C          63.7823   86.7364   15.4538 C.ar    1  UNL1        0.0015
     10 C          62.8880   87.1073   16.5997 C.ar    1  UNL1        0.0001
     11 C          62.7533   88.5434   17.0115 C.ar    1  UNL1        0.0015
     12 C          63.5127   89.6085   16.2775 C.ar    1  UNL1        0.0192
     13 C          65.5874   93.2294   11.8832 C.2     1  UNL1        0.2498
     14 O          64.5612   93.1267   10.7940 O.2     1  UNL1       -0.2700
     15 N          66.4920   94.4240   11.9511 N.am    1  UNL1       -0.3024
     16 H          67.1656   94.4914   12.6660 H       1  UNL1        0.1497
     17 C          66.3705   95.5159   10.9298 C.3     1  UNL1        0.0718
     18 C          65.8065   96.8496   11.3213 C.3     1  UNL1        0.0213
     19 C          66.8129   95.2740    9.5171 C.3     1  UNL1        0.0165
     20 C          65.9026   96.3687    9.0447 C.3     1  UNL1        0.0016
     21 C          67.7231   94.1794    9.9895 C.3     1  UNL1        0.0016
     22 C          67.2554   95.0322    8.1043 C.3     1  UNL1        0.0016
     23 N          63.1743   91.2888   12.9129 N.pl3   1  UNL1       -0.1987
     24 H          62.5800   92.0136   13.2141 H       1  UNL1        0.1753
     25 S          62.6542   90.2276   11.9891 S.O2    1  UNL1        0.0747
     26 O          63.5617   90.7273   10.9044 O.2     1  UNL1       -0.1499
     27 O          61.7467   89.7280   13.0739 O.2     1  UNL1       -0.1499
     28 C          60.5740   85.9831    8.2936 C.3     1  UNL1        0.0310
     29 C          61.0941   87.0442    9.2174 C.ar    1  UNL1       -0.0218
     30 C          60.6912   88.4753    9.0183 C.ar    1  UNL1       -0.0029
     31 C          61.2112   89.5364    9.9421 C.ar    1  UNL1        0.0199
     32 C          62.1342   89.1664   11.0652 C.ar    1  UNL1        0.1252
     33 C          62.5371   87.7354   11.2644 C.ar    1  UNL1        0.0199
     34 C          62.0170   86.6742   10.3405 C.ar    1  UNL1       -0.0029
@<TRIPOS>BOND
     1    28    29    1
     2    29    30   ar
     3    30    31   ar
     4    31    32   ar
     5    32    25    1
     6    25    26    2
     7    25    27    2
     8    25    23    1
     9    23     1    1
    10     1     2   ar
    11     2    13    1
    12    13    14    2
    13    13    15   am
    14    15    17    1
    15    17    18    1
    16    17    19    1
    17    19    20    1
    18    19    21    1
    19    19    22    1
    20     2     3   ar
    21     3     4    1
    22     3     5   ar
    23     5     6   ar
    24     6     7    1
    25     7     8   ar
    26     8     9   ar
    27     9    10   ar
    28    10    11   ar
    29    11    12   ar
    30    32    33   ar
    31    33    34   ar
    32    34    29   ar
    33     6     1   ar
    34    12     7   ar
    35    23    24    1
    36    15    16    1
@<TRIPOS>MOLECULE
*****
 34 36 0 0 0
SMALL
GASTEIGER

@<TRIPOS>ATOM
      1 C          63.4747   85.2273   14.4642 C.ar    1  UNL1        0.1539
      2 C          63.5233   86.3500   15.4580 C.ar    1  UNL1        0.1013
      3 C          62.9546   85.8484   16.7522 C.ar    1  UNL1        0.0865
      4 C          62.8111   86.6403   18.0179 C.3     1  UNL1        0.0542
      5 N          62.5544   84.4157   16.5584 N.ar    1  UNL1       -0.1681
      6 N          62.8759   84.0319   15.1443 N.ar    1  UNL1       -0.2150
      7 C          62.6400   82.6886   14.5201 C.ar    1  UNL1        0.0842
      8 C          61.2648   82.0895   14.5267 C.ar    1  UNL1        0.0192
      9 C          61.0288   80.7462   13.9025 C.ar    1  UNL1        0.0015
     10 C          62.1681   80.0019   13.2715 C.ar    1  UNL1        0.0001
     11 C          63.5433   80.6009   13.2648 C.ar    1  UNL1        0.0015
     12 C          63.7792   81.9443   13.8891 C.ar    1  UNL1        0.0192
     13 C          64.0484   87.7315   15.2023 C.2     1  UNL1        0.2498
     14 O          65.4919   87.9314   14.8470 O.2     1  UNL1       -0.2700
     15 N          63.1300   88.9133   15.3018 N.am    1  UNL1       -0.3024
     16 H          62.1825   88.7822   15.5350 H       1  UNL1        0.1497
     17 C          63.6551   90.2950   15.0461 C.3     1  UNL1        0.0718
     18 C          63.9410   91.2136   16.1970 C.3     1  UNL1        0.0213
     19 C          63.8942   90.7580   13.6396 C.3     1  UNL1        0.0165
     20 C          62.5569   90.2137   13.2330 C.3     1  UNL1        0.0016
     21 C          65.2315   91.3024   14.0462 C.3     1  UNL1        0.0016
     22 C          64.1334   91.2211   12.2330 C.3     1  UNL1        0.0016
     23 N          63.9426   85.2892   13.0405 N.pl3   1  UNL1       -0.1987
     24 H          64.8699   85.0462   12.8161 H       1  UNL1        0.1753
     25 S          62.9978   85.7215   11.9586 S.O2    1  UNL1        0.0747
     26 O          63.1385   87.1466   12.4052 O.2     1  UNL1       -0.1499
     27 O          62.8572   84.2965   11.5120 O.2     1  UNL1       -0.1499
     28 C          59.2186   87.4509    7.6311 C.3     1  UNL1        0.0310
     29 C          60.1634   87.0186    8.7130 C.ar    1  UNL1       -0.0218
     30 C          61.2629   86.0460    8.4041 C.ar    1  UNL1       -0.0029
     31 C          62.2076   85.6137    9.4860 C.ar    1  UNL1        0.0199
     32 C          62.0530   86.1539   10.8767 C.ar    1  UNL1        0.1252
     33 C          60.9536   87.1264   11.1857 C.ar    1  UNL1        0.0199
     34 C          60.0087   87.5587   10.1038 C.ar    1  UNL1       -0.0029
@<TRIPOS>BOND
     1    28    29    1
     2    29    30   ar
     3    30    31   ar
     4    31    32   ar
     5    32    25    1
     6    25    26    2
     7    25    27    2
     8    25    23    1
     9    23     1    1
    10     1     2   ar
    11     2    13    1
    12    13    14    2
    13    13    15   am
    14    15    17    1
    15    17    18    1
    16    17    19    1
    17    19    20    1
    18    19    21    1
    19    19    22    1
    20     2     3   ar
    21     3     4    1
    22     3     5   ar
    23     5     6   ar
    24     6     7    1
    25     7     8   ar
    26     8     9   ar
    27     9    10   ar
    28    10    11   ar
    29    11    12   ar
    30    32    33   ar
    31    33    34   ar
    32    34    29   ar
    33     6     1   ar
    34    12     7   ar
    35    23    24    1
    36    15    16    1
@<TRIPOS>MOLECULE
*****
 34 36 0 0 0
SMALL
GASTEIGER

@<TRIPOS>ATOM
      1 C          62.5352   89.5139   11.5708 C.ar    1  UNL1        0.1539
      2 C          63.4648   90.6406   11.9123 C.ar    1  UNL1        0.1013
      3 C          63.7643   91.3933   10.6498 C.ar    1  UNL1        0.0865
      4 C          64.6524   92.5961   10.5301 C.3     1  UNL1        0.0542
      5 N          63.0198   90.7318    9.5281 N.ar    1  UNL1       -0.1681
      6 N          62.2602   89.5703   10.0973 N.ar    1  UNL1       -0.2150
      7 C          61.3801   88.6303    9.3281 C.ar    1  UNL1        0.0842
      8 C          60.0351   89.0871    8.8462 C.ar    1  UNL1        0.0192
      9 C          59.1550   88.1472    8.0770 C.ar    1  UNL1        0.0015
     10 C          59.6199   86.7502    7.7896 C.ar    1  UNL1        0.0001
     11 C          60.9649   86.2934    8.2715 C.ar    1  UNL1        0.0015
     12 C          61.8450   87.2334    9.0407 C.ar    1  UNL1        0.0192
     13 C          64.0008   90.9587   13.2767 C.2     1  UNL1        0.2498
     14 O          63.2116   90.5888   14.4975 O.2     1  UNL1       -0.2700
     15 N          65.3260   91.6466   13.4203 N.am    1  UNL1       -0.3024
     16 H          65.8440   91.8894   12.6190 H       1  UNL1        0.1497
     17 C          65.8620   91.9647   14.7846 C.3     1  UNL1        0.0718
     18 C          64.9497   91.9337   15.9749 C.3     1  UNL1        0.0213
     19 C          67.3104   92.3138   14.9587 C.3     1  UNL1        0.0165
     20 C          67.5885   91.8591   13.5567 C.3     1  UNL1        0.0016
     21 C          67.0322   92.7686   16.3608 C.3     1  UNL1        0.0016
     22 C          68.7588   92.6630   15.1329 C.3     1  UNL1        0.0016
     23 N          61.9784   88.5076   12.5338 N.pl3   1  UNL1       -0.1987
     24 H          61.2753   88.7719   13.1702 H       1  UNL1        0.1753
     25 S          62.4930   87.0987   12.5271 S.O2    1  UNL1        0.0747
     26 O          63.7442   87.5524   13.2188 O.2     1  UNL1       -0.1499
     27 O          61.2417   86.6450   11.8355 O.2     1  UNL1       -0.1499
     28 C          64.5513   81.4628   12.5005 C.3     1  UNL1        0.0310
     29 C          64.0367   82.8718   12.5072 C.ar    1  UNL1       -0.0218
     30 C          63.1494   83.3515   11.3969 C.ar    1  UNL1       -0.0029
     31 C          62.6348   84.7604   11.4036 C.ar    1  UNL1        0.0199
     32 C          63.0076   85.6897   12.5205 C.ar    1  UNL1        0.1252
     33 C          63.8949   85.2101   13.6307 C.ar    1  UNL1        0.0199
     34 C          64.4095   83.8011   13.6241 C.ar    1  UNL1       -0.0029
@<TRIPOS>BOND
     1    28    29    1
     2    29    30   ar
     3    30    31   ar
     4    31    32   ar
     5    32    25    1
     6    25    26    2
     7    25    27    2
     8    25    23    1
     9    23     1    1
    10     1     2   ar
    11     2    13    1
    12    13    14    2
    13    13    15   am
    14    15    17    1
    15    17    18    1
    16    17    19    1
    17    19    20    1
    18    19    21    1
    19    19    22    1
    20     2     3   ar
    21     3     4    1
    22     3     5   ar
    23     5     6   ar
    24     6     7    1
    25     7     8   ar
    26     8     9   ar
    27     9    10   ar
    28    10    11   ar
    29    11    12   ar
    30    32    33   ar
    31    33    34   ar
    32    34    29   ar
    33     6     1   ar
    34    12     7   ar
    35    23    24    1
    36    15    16    1
@<TRIPOS>MOLECULE
*****
 34 36 0 0 0
SMALL
GASTEIGER

@<TRIPOS>ATOM
      1 C          63.5370   86.2965   14.5911 C.ar    1  UNL1        0.1539
      2 C          63.3323   87.2824   15.7031 C.ar    1  UNL1        0.1013
      3 C          62.8893   86.5242   16.9191 C.ar    1  UNL1        0.0865
      4 C          62.5712   87.1164   18.2600 C.3     1  UNL1        0.0542
      5 N          62.8202   85.0697   16.5589 N.ar    1  UNL1       -0.1681
      6 N          63.2205   84.9290   15.1201 N.ar    1  UNL1       -0.2150
      7 C          63.2918   83.6460   14.3462 C.ar    1  UNL1        0.0842
      8 C          64.4583   83.3796   13.4416 C.ar    1  UNL1        0.0192
      9 C          64.5296   82.0968   12.6676 C.ar    1  UNL1        0.0015
     10 C          63.4343   81.0802   12.7983 C.ar    1  UNL1        0.0001
     11 C          62.2678   81.3466   13.7029 C.ar    1  UNL1        0.0015
     12 C          62.1965   82.6295   14.4768 C.ar    1  UNL1        0.0192
     13 C          63.5350   88.7659   15.6143 C.2     1  UNL1        0.2498
     14 O          62.5359   89.6978   16.2335 O.2     1  UNL1       -0.2700
     15 N          64.7369   89.3177   14.9064 N.am    1  UNL1       -0.3024
     16 H          65.3927   88.7060   14.5001 H       1  UNL1        0.1497
     17 C          64.9397   90.8012   14.8177 C.3     1  UNL1        0.0718
     18 C          64.7385   91.6597   16.0312 C.3     1  UNL1        0.0213
     19 C          65.3438   91.4263   13.5154 C.3     1  UNL1        0.0165
     20 C          66.7442   91.5886   14.0278 C.3     1  UNL1        0.0016
     21 C          63.9434   91.2640   13.0030 C.3     1  UNL1        0.0016
     22 C          65.7479   92.0515   12.2130 C.3     1  UNL1        0.0016
     23 N          63.9803   86.6212   13.1955 N.pl3   1  UNL1       -0.1987
     24 H          64.9403   86.6653   12.9816 H       1  UNL1        0.1753
     25 S          62.9610   86.8786   12.1256 S.O2    1  UNL1        0.0747
     26 O          63.0430   88.3506   12.4016 O.2     1  UNL1       -0.1499
     27 O          62.8791   85.4065   11.8495 O.2     1  UNL1       -0.1499
     28 C          58.8837   87.9082    7.8459 C.3     1  UNL1        0.0310
     29 C          59.9030   87.6508    8.9158 C.ar    1  UNL1       -0.0218
     30 C          60.5389   86.2975    9.0360 C.ar    1  UNL1       -0.0029
     31 C          61.5581   86.0401   10.1059 C.ar    1  UNL1        0.0199
     32 C          61.9417   87.1360   11.0556 C.ar    1  UNL1        0.1252
     33 C          61.3059   88.4893   10.9354 C.ar    1  UNL1        0.0199
     34 C          60.2866   88.7467    9.8655 C.ar    1  UNL1       -0.0029
@<TRIPOS>BOND
     1    28    29    1
     2    29    30   ar
     3    30    31   ar
     4    31    32   ar
     5    32    25    1
     6    25    26    2
     7    25    27    2
     8    25    23    1
     9    23     1    1
    10     1     2   ar
    11     2    13    1
    12    13    14    2
    13    13    15   am
    14    15    17    1
    15    17    18    1
    16    17    19    1
    17    19    20    1
    18    19    21    1
    19    19    22    1
    20     2     3   ar
    21     3     4    1
    22     3     5   ar
    23     5     6   ar
    24     6     7    1
    25     7     8   ar
    26     8     9   ar
    27     9    10   ar
    28    10    11   ar
    29    11    12   ar
    30    32    33   ar
    31    33    34   ar
    32    34    29   ar
    33     6     1   ar
    34    12     7   ar
    35    23    24    1
    36    15    16    1
@<TRIPOS>MOLECULE
*****
 34 36 0 0 0
SMALL
GASTEIGER

@<TRIPOS>ATOM
      1 C          64.1397   90.5712   13.3420 C.ar    1  UNL1        0.1539
      2 C          63.2847   90.5483   12.1096 C.ar    1  UNL1        0.1013
      3 C          63.8607   91.5250   11.1276 C.ar    1  UNL1        0.0865
      4 C          63.3206   91.8229    9.7604 C.3     1  UNL1        0.0542
      5 N          65.0717   92.1516   11.7530 N.ar    1  UNL1       -0.1681
      6 N          65.2441   91.5620   13.1216 N.ar    1  UNL1       -0.2150
      7 C          66.3302   91.9034   14.0982 C.ar    1  UNL1        0.0842
      8 C          65.9782   92.3288   15.4929 C.ar    1  UNL1        0.0192
      9 C          67.0642   92.6701   16.4695 C.ar    1  UNL1        0.0015
     10 C          68.5024   92.5862   16.0515 C.ar    1  UNL1        0.0001
     11 C          68.8544   92.1608   14.6567 C.ar    1  UNL1        0.0015
     12 C          67.7683   91.8194   13.6801 C.ar    1  UNL1        0.0192
     13 C          62.0675   89.6981   11.8967 C.2     1  UNL1        0.2498
     14 O          60.9904   89.6557   12.9398 O.2     1  UNL1       -0.2700
     15 N          61.9273   88.8901   10.6407 N.am    1  UNL1       -0.3024
     16 H          62.6343   88.9179    9.9561 H       1  UNL1        0.1497
     17 C          60.7102   88.0398   10.4277 C.3     1  UNL1        0.0718
     18 C          59.5393   88.1599   11.3576 C.3     1  UNL1        0.0213
     19 C          60.6638   87.0693    9.2849 C.3     1  UNL1        0.0165
     20 C          59.9816   88.1012    8.4364 C.3     1  UNL1        0.0016
     21 C          61.3460   86.0375   10.1334 C.3     1  UNL1        0.0016
     22 C          60.6175   86.0988    8.1420 C.3     1  UNL1        0.0016
     23 N          63.9275   89.7478   14.5776 N.pl3   1  UNL1       -0.1987
     24 H          63.8208   90.1893   15.4511 H       1  UNL1        0.1753
     25 S          63.8779   88.2516   14.4825 S.O2    1  UNL1        0.0747
     26 O          64.1769   88.3350   13.0150 O.2     1  UNL1       -0.1499
     27 O          63.5788   88.1683   15.9500 O.2     1  UNL1       -0.1499
     28 C          63.6792   82.2670   14.1017 C.3     1  UNL1        0.0310
     29 C          63.7289   83.7631   14.1969 C.ar    1  UNL1       -0.0218
     30 C          63.3801   84.6026   13.0037 C.ar    1  UNL1       -0.0029
     31 C          63.4298   86.0987   13.0989 C.ar    1  UNL1        0.0199
     32 C          63.8282   86.7554   14.3873 C.ar    1  UNL1        0.1252
     33 C          64.1769   85.9160   15.5805 C.ar    1  UNL1        0.0199
     34 C          64.1273   84.4198   15.4853 C.ar    1  UNL1       -0.0029
@<TRIPOS>BOND
     1    28    29    1
     2    29    30   ar
     3    30    31   ar
     4    31    32   ar
     5    32    25    1
     6    25    26    2
     7    25    27    2
     8    25    23    1
     9    23     1    1
    10     1     2   ar
    11     2    13    1
    12    13    14    2
    13    13    15   am
    14    15    17    1
    15    17    18    1
    16    17    19    1
    17    19    20    1
    18    19    21    1
    19    19    22    1
    20     2     3   ar
    21     3     4    1
    22     3     5   ar
    23     5     6   ar
    24     6     7    1
    25     7     8   ar
    26     8     9   ar
    27     9    10   ar
    28    10    11   ar
    29    11    12   ar
    30    32    33   ar
    31    33    34   ar
    32    34    29   ar
    33     6     1   ar
    34    12     7   ar
    35    23    24    1
    36    15    16    1
@<TRIPOS>MOLECULE
*****
 34 36 0 0 0
SMALL
GASTEIGER

@<TRIPOS>ATOM
      1 C          61.7273   86.6958   11.0906 C.ar    1  UNL1        0.1539
      2 C          62.5316   85.5521   11.6339 C.ar    1  UNL1        0.1013
      3 C          62.6594   84.5203   10.5527 C.ar    1  UNL1        0.0865
      4 C          63.3851   83.2123   10.6635 C.3     1  UNL1        0.0542
      5 N          61.9340   85.0262    9.3411 N.ar    1  UNL1       -0.1681
      6 N          61.3579   86.3708    9.6736 N.ar    1  UNL1       -0.2150
      7 C          60.5537   87.2380    8.7510 C.ar    1  UNL1        0.0842
      8 C          60.6993   88.7299    8.8070 C.ar    1  UNL1        0.0192
      9 C          59.8951   89.5971    7.8845 C.ar    1  UNL1        0.0015
     10 C          58.9452   88.9724    6.9059 C.ar    1  UNL1        0.0001
     11 C          58.7996   87.4805    6.8499 C.ar    1  UNL1        0.0015
     12 C          59.6039   86.6133    7.7724 C.ar    1  UNL1        0.0192
     13 C          63.1072   85.4570   13.0158 C.2     1  UNL1        0.2498
     14 O          62.9941   84.1766   13.7889 O.2     1  UNL1       -0.2700
     15 N          63.7958   86.6424   13.6247 N.am    1  UNL1       -0.3024
     16 H          63.8700   87.4828   13.1172 H       1  UNL1        0.1497
     17 C          64.3713   86.5474   15.0066 C.3     1  UNL1        0.0718
     18 C          65.6821   85.8522   15.2270 C.3     1  UNL1        0.0213
     19 C          63.6361   87.1477   16.1681 C.3     1  UNL1        0.0165
     20 C          63.4327   85.7789   16.7467 C.3     1  UNL1        0.0016
     21 C          63.8396   88.5166   15.5894 C.3     1  UNL1        0.0016
     22 C          62.9009   87.7481   17.3296 C.3     1  UNL1        0.0016
     23 N          61.3573   87.9450   11.8338 N.pl3   1  UNL1       -0.1987
     24 H          60.4901   88.0042   12.2962 H       1  UNL1        0.1753
     25 S          62.3086   89.1041   11.8727 S.O2    1  UNL1        0.0747
     26 O          63.1422   88.4557   10.8076 O.2     1  UNL1       -0.1499
     27 O          61.4749   89.7526   12.9378 O.2     1  UNL1       -0.1499
     28 C          66.1139   93.7405   12.0278 C.3     1  UNL1        0.0310
     29 C          65.1626   92.5814   11.9891 C.ar    1  UNL1       -0.0218
     30 C          64.4457   92.2418   10.7159 C.ar    1  UNL1       -0.0029
     31 C          63.4944   91.0827   10.6772 C.ar    1  UNL1        0.0199
     32 C          63.2599   90.2632   11.9115 C.ar    1  UNL1        0.1252
     33 C          63.9768   90.6029   13.1846 C.ar    1  UNL1        0.0199
     34 C          64.9281   91.7620   13.2234 C.ar    1  UNL1       -0.0029
@<TRIPOS>BOND
     1    28    29    1
     2    29    30   ar
     3    30    31   ar
     4    31    32   ar
     5    32    25    1
     6    25    26    2
     7    25    27    2
     8    25    23    1
     9    23     1    1
    10     1     2   ar
    11     2    13    1
    12    13    14    2
    13    13    15   am
    14    15    17    1
    15    17    18    1
    16    17    19    1
    17    19    20    1
    18    19    21    1
    19    19    22    1
    20     2     3   ar
    21     3     4    1
    22     3     5   ar
    23     5     6   ar
    24     6     7    1
    25     7     8   ar
    26     8     9   ar
    27     9    10   ar
    28    10    11   ar
    29    11    12   ar
    30    32    33   ar
    31    33    34   ar
    32    34    29   ar
    33     6     1   ar
    34    12     7   ar
    35    23    24    1
    36    15    16    1
@<TRIPOS>MOLECULE
*****
 34 36 0 0 0
SMALL
GASTEIGER

@<TRIPOS>ATOM
      1 C          60.1316   88.6942    8.5567 C.ar    1  UNL1        0.1539
      2 C          60.6018   87.3331    8.9766 C.ar    1  UNL1        0.1013
      3 C          60.5008   86.4212    7.7899 C.ar    1  UNL1        0.0865
      4 C          60.8680   84.9672    7.7616 C.3     1  UNL1        0.0542
      5 N          59.9682   87.2187    6.6365 N.ar    1  UNL1       -0.1681
      6 N          59.7400   88.6235    7.1104 N.ar    1  UNL1       -0.2150
      7 C          59.2128   89.7583    6.2832 C.ar    1  UNL1        0.0842
      8 C          60.1652   90.6855    5.5881 C.ar    1  UNL1        0.0192
      9 C          59.6381   91.8203    4.7609 C.ar    1  UNL1        0.0015
     10 C          58.1584   92.0280    4.6289 C.ar    1  UNL1        0.0001
     11 C          57.2059   91.1008    5.3240 C.ar    1  UNL1        0.0015
     12 C          57.7331   89.9660    6.1512 C.ar    1  UNL1        0.0192
     13 C          61.0877   86.9510   10.3433 C.2     1  UNL1        0.2498
     14 O          60.3402   87.4093   11.5604 O.2     1  UNL1       -0.2700
     15 N          62.3212   86.1107   10.4930 N.am    1  UNL1       -0.3024
     16 H          62.8118   85.8099    9.6943 H       1  UNL1        0.1497
     17 C          62.8071   85.7286   11.8597 C.3     1  UNL1        0.0718
     18 C          63.2565   86.7899   12.8198 C.3     1  UNL1        0.0213
     19 C          62.8438   84.2852   12.2663 C.3     1  UNL1        0.0165
     20 C          63.1404   83.8935   10.8490 C.3     1  UNL1        0.0016
     21 C          62.5472   84.6769   13.6835 C.3     1  UNL1        0.0016
     22 C          62.8804   82.8418   12.6729 C.3     1  UNL1        0.0016
     23 N          60.0648   89.9121    9.4297 N.pl3   1  UNL1       -0.1987
     24 H          59.2387   90.4464    9.4669 H       1  UNL1        0.1753
     25 S          61.2566   90.3160   10.2460 S.O2    1  UNL1        0.0747
     26 O          60.3573   90.6250   11.4060 O.2     1  UNL1       -0.1499
     27 O          62.1559   90.0071    9.0859 O.2     1  UNL1       -0.1499
     28 C          66.0238   91.9317   13.5116 C.3     1  UNL1        0.0310
     29 C          64.8320   91.5278   12.6952 C.ar    1  UNL1       -0.0218
     30 C          63.7617   90.6708   13.3035 C.ar    1  UNL1       -0.0029
     31 C          62.5699   90.2669   12.4872 C.ar    1  UNL1        0.0199
     32 C          62.4484   90.7200   11.0624 C.ar    1  UNL1        0.1252
     33 C          63.5187   91.5769   10.4540 C.ar    1  UNL1        0.0199
     34 C          64.7105   91.9808   11.2704 C.ar    1  UNL1       -0.0029
@<TRIPOS>BOND
     1    28    29    1
     2    29    30   ar
     3    30    31   ar
     4    31    32   ar
     5    32    25    1
     6    25    26    2
     7    25    27    2
     8    25    23    1
     9    23     1    1
    10     1     2   ar
    11     2    13    1
    12    13    14    2
    13    13    15   am
    14    15    17    1
    15    17    18    1
    16    17    19    1
    17    19    20    1
    18    19    21    1
    19    19    22    1
    20     2     3   ar
    21     3     4    1
    22     3     5   ar
    23     5     6   ar
    24     6     7    1
    25     7     8   ar
    26     8     9   ar
    27     9    10   ar
    28    10    11   ar
    29    11    12   ar
    30    32    33   ar
    31    33    34   ar
    32    34    29   ar
    33     6     1   ar
    34    12     7   ar
    35    23    24    1
    36    15    16    1
@<TRIPOS>MOLECULE
*****
 34 36 0 0 0
SMALL
GASTEIGER

@<TRIPOS>ATOM
      1 C          63.2923   85.3213   13.6028 C.ar    1  UNL1        0.1539
      2 C          64.2826   86.3282   14.1083 C.ar    1  UNL1        0.1013
      3 C          65.3796   85.5862   14.8127 C.ar    1  UNL1        0.0865
      4 C          66.5784   86.2017   15.4715 C.3     1  UNL1        0.0542
      5 N          65.0674   84.1207   14.7425 N.ar    1  UNL1       -0.1681
      6 N          63.7773   83.9570   13.9948 N.ar    1  UNL1       -0.2150
      7 C          63.0925   82.6572   13.6922 C.ar    1  UNL1        0.0842
      8 C          63.6265   81.7613   12.6141 C.ar    1  UNL1        0.0192
      9 C          62.9418   80.4616   12.3114 C.ar    1  UNL1        0.0015
     10 C          61.7229   80.0576   13.0869 C.ar    1  UNL1        0.0001
     11 C          61.1889   80.9535   14.1650 C.ar    1  UNL1        0.0015
     12 C          61.8737   82.2533   14.4676 C.ar    1  UNL1        0.0192
     13 C          64.1918   87.8158   13.9391 C.2     1  UNL1        0.2498
     14 O          64.7594   88.7260   14.9876 O.2     1  UNL1       -0.2700
     15 N          63.5334   88.3933   12.7213 N.am    1  UNL1       -0.3024
     16 H          63.1609   87.7960   12.0331 H       1  UNL1        0.1497
     17 C          63.4425   89.8810   12.5520 C.3     1  UNL1        0.0718
     18 C          63.5772   90.7811   13.7444 C.3     1  UNL1        0.0213
     19 C          63.2169   90.4684   11.1904 C.3     1  UNL1        0.0165
     20 C          62.3137   89.3217   10.8453 C.3     1  UNL1        0.0016
     21 C          64.1202   91.6152   11.5356 C.3     1  UNL1        0.0016
     22 C          62.9914   91.0560    9.8288 C.3     1  UNL1        0.0016
     23 N          62.0374   85.6253   12.8394 N.pl3   1  UNL1       -0.1987
     24 H          61.2295   85.9209   13.3181 H       1  UNL1        0.1753
     25 S          62.0135   85.4788   11.3468 S.O2    1  UNL1        0.0747
     26 O          63.2074   84.5734   11.4166 O.2     1  UNL1       -0.1499
     27 O          60.8196   86.3841   11.2771 O.2     1  UNL1       -0.1499
     28 C          61.9179   84.8927    5.3763 C.3     1  UNL1        0.0310
     29 C          61.9418   85.0392    6.8689 C.ar    1  UNL1       -0.0218
     30 C          60.8118   85.7304    7.5729 C.ar    1  UNL1       -0.0029
     31 C          60.8358   85.8769    9.0655 C.ar    1  UNL1        0.0199
     32 C          61.9896   85.3322    9.8541 C.ar    1  UNL1        0.1252
     33 C          63.1195   84.6411    9.1502 C.ar    1  UNL1        0.0199
     34 C          63.0957   84.4946    7.6575 C.ar    1  UNL1       -0.0029
@<TRIPOS>BOND
     1    28    29    1
     2    29    30   ar
     3    30    31   ar
     4    31    32   ar
     5    32    25    1
     6    25    26    2
     7    25    27    2
     8    25    23    1
     9    23     1    1
    10     1     2   ar
    11     2    13    1
    12    13    14    2
    13    13    15   am
    14    15    17    1
    15    17    18    1
    16    17    19    1
    17    19    20    1
    18    19    21    1
    19    19    22    1
    20     2     3   ar
    21     3     4    1
    22     3     5   ar
    23     5     6   ar
    24     6     7    1
    25     7     8   ar
    26     8     9   ar
    27     9    10   ar
    28    10    11   ar
    29    11    12   ar
    30    32    33   ar
    31    33    34   ar
    32    34    29   ar
    33     6     1   ar
    34    12     7   ar
    35    23    24    1
    36    15    16    1
