@<TRIPOS>MOLECULE
*****
 34 39 0 0 0
SMALL
GASTEIGER

@<TRIPOS>ATOM
      1 C          63.9001   91.7515   10.7258 C.3     1  UNL1        0.0749
      2 C          64.2011   91.3550   12.1408 C.3     1  UNL1        0.0444
      3 C          65.1485   92.1761   12.9643 C.ar    1  UNL1       -0.0101
      4 C          65.7947   93.3937   12.3730 C.ar    1  UNL1       -0.0091
      5 C          66.7421   94.2148   13.1966 C.ar    1  UNL1       -0.0032
      6 C          67.0432   93.8183   14.6115 C.ar    1  UNL1        0.0010
      7 C          66.3969   92.6007   15.2029 C.ar    1  UNL1        0.0142
      8 C          65.4496   91.7796   14.3793 C.ar    1  UNL1        0.0436
      9 C          65.4937   93.7903   10.9580 C.3     1  UNL1        0.0954
     10 N          64.5464   92.9692   10.1345 N.3     1  UNL1       -0.2934
     11 H          65.0643   92.6579    9.3127 H       1  UNL1        0.1236
     12 N          64.8033   90.5620   14.9707 N.pl3   1  UNL1       -0.3049
     13 C          65.0459   89.2131   14.3609 C.3     1  UNL1        0.1081
     14 C          64.3996   87.9955   14.9522 C.3     1  UNL1        0.0939
     15 N          63.5107   88.1267   16.1534 N.3     1  UNL1       -0.2668
     16 C          63.2682   89.4755   16.7632 C.3     1  UNL1        0.0939
     17 C          63.9145   90.6932   16.1718 C.3     1  UNL1        0.1081
     18 C          62.8644   86.9091   16.7448 C.3     1  UNL1        0.1173
     19 C          62.4174   85.5804   16.2110 C.3     1  UNL1        0.1606
     20 O          61.9505   85.1871   17.5811 O.3     1  UNL1       -0.3507
     21 C          62.3974   86.5157   18.1149 C.3     1  UNL1        0.1606
     22 C          62.9527   90.9304    9.9022 C.3     1  UNL1        0.0886
     23 C          60.8019   90.9281   11.3596 C.3     1  UNL1        0.0899
     24 N          61.8348   90.1832   10.5670 N.3     1  UNL1       -0.2667
     25 C          61.7499   88.6911   10.4392 C.3     1  UNL1        0.0978
     26 C          62.5281   87.8128   11.3735 C.3     1  UNL1        0.0224
     27 C          62.4431   86.3206   11.2456 C.3     1  UNL1        0.0065
     28 C          61.5800   85.7068   10.1835 C.3     1  UNL1        0.0277
     29 C          60.8017   86.5851    9.2491 C.ar    1  UNL1       -0.0073
     30 C          59.9386   85.9713    8.1870 C.ar    1  UNL1       -0.0015
     31 C          59.1604   86.8496    7.2527 C.ar    1  UNL1        0.0203
     32 C          59.2454   88.3417    7.3805 C.ar    1  UNL1        0.0985
     33 N          60.1085   88.9555    8.4426 N.ar    1  UNL1       -0.2471
     34 C          60.8867   88.0772    9.3769 C.ar    1  UNL1        0.0695
@<TRIPOS>BOND
     1    23    24    1
     2    24    22    1
     3     1    22    1
     4     1     2    1
     5     2     3    1
     6     3     4   ar
     7     4     5   ar
     8     5     6   ar
     9     6     7   ar
    10     7     8   ar
    11     8    12    1
    12    12    13    1
    13    13    14    1
    14    14    15    1
    15    15    18    1
    16    18    19    1
    17    19    20    1
    18    20    21    1
    19    15    16    1
    20    16    17    1
    21     4     9    1
    22     9    10    1
    23    25    24    1
    24    25    26    1
    25    26    27    1
    26    27    28    1
    27    28    29    1
    28    29    30   ar
    29    30    31   ar
    30    31    32   ar
    31    32    33   ar
    32    33    34   ar
    33    10     1    1
    34    34    25    1
    35     8     3   ar
    36    17    12    1
    37    34    29   ar
    38    21    18    1
    39    10    11    1
@<TRIPOS>MOLECULE
*****
 34 39 0 0 0
SMALL
GASTEIGER

@<TRIPOS>ATOM
      1 C          64.4676   86.7927   14.5162 C.3     1  UNL1        0.0749
      2 C          63.6628   86.2997   13.3504 C.3     1  UNL1        0.0444
      3 C          63.4965   84.8263   13.1233 C.ar    1  UNL1       -0.0101
      4 C          64.1349   83.8460   14.0621 C.ar    1  UNL1       -0.0091
      5 C          63.9686   82.3726   13.8351 C.ar    1  UNL1       -0.0032
      6 C          63.1638   81.8796   12.6693 C.ar    1  UNL1        0.0010
      7 C          62.5253   82.8599   11.7305 C.ar    1  UNL1        0.0142
      8 C          62.6916   84.3332   11.9575 C.ar    1  UNL1        0.0436
      9 C          64.9397   84.3390   15.2279 C.3     1  UNL1        0.0954
     10 N          65.1061   85.8124   15.4550 N.3     1  UNL1       -0.2934
     11 H          66.1083   86.0012   15.4409 H       1  UNL1        0.1236
     12 N          62.0531   85.3135   11.0187 N.pl3   1  UNL1       -0.3049
     13 C          62.3822   85.2744    9.5557 C.3     1  UNL1        0.1081
     14 C          61.7437   86.2547    8.6169 C.3     1  UNL1        0.0939
     15 N          60.7762   87.2741    9.1411 N.3     1  UNL1       -0.2668
     16 C          60.4471   87.3132   10.6040 C.3     1  UNL1        0.0939
     17 C          61.0856   86.3329   11.5428 C.3     1  UNL1        0.1081
     18 C          60.1377   88.2544    8.2023 C.3     1  UNL1        0.1173
     19 C          59.2518   88.1459    6.9966 C.3     1  UNL1        0.1606
     20 O          59.2347   89.6408    6.8746 O.3     1  UNL1       -0.3507
     21 C          60.1205   89.7493    8.0802 C.3     1  UNL1        0.1606
     22 C          64.6339   88.2661   14.7432 C.3     1  UNL1        0.0886
     23 C          62.3606   89.4003   15.2871 C.3     1  UNL1        0.0899
     24 N          63.5316   89.2118   14.3687 N.3     1  UNL1       -0.2667
     25 C          63.6001   89.9692   13.0757 C.3     1  UNL1        0.0978
     26 C          62.7824   89.5221   11.9004 C.3     1  UNL1        0.0224
     27 C          62.8509   90.2794   10.6074 C.3     1  UNL1        0.0065
     28 C          63.7372   91.4838   10.4898 C.3     1  UNL1        0.0277
     29 C          64.5550   91.9310   11.6651 C.ar    1  UNL1       -0.0073
     30 C          65.4413   93.1354   11.5475 C.ar    1  UNL1       -0.0015
     31 C          66.2590   93.5824   12.7228 C.ar    1  UNL1        0.0203
     32 C          66.1905   92.8251   14.0157 C.ar    1  UNL1        0.0985
     33 N          65.3042   91.6207   14.1334 N.ar    1  UNL1       -0.2471
     34 C          64.4865   91.1736   12.9581 C.ar    1  UNL1        0.0695
@<TRIPOS>BOND
     1    23    24    1
     2    24    22    1
     3     1    22    1
     4     1     2    1
     5     2     3    1
     6     3     4   ar
     7     4     5   ar
     8     5     6   ar
     9     6     7   ar
    10     7     8   ar
    11     8    12    1
    12    12    13    1
    13    13    14    1
    14    14    15    1
    15    15    18    1
    16    18    19    1
    17    19    20    1
    18    20    21    1
    19    15    16    1
    20    16    17    1
    21     4     9    1
    22     9    10    1
    23    25    24    1
    24    25    26    1
    25    26    27    1
    26    27    28    1
    27    28    29    1
    28    29    30   ar
    29    30    31   ar
    30    31    32   ar
    31    32    33   ar
    32    33    34   ar
    33    10     1    1
    34    34    25    1
    35     8     3   ar
    36    17    12    1
    37    34    29   ar
    38    21    18    1
    39    10    11    1
@<TRIPOS>MOLECULE
*****
 34 39 0 0 0
SMALL
GASTEIGER

@<TRIPOS>ATOM
      1 C          62.9852   86.2443   12.5227 C.3     1  UNL1        0.0749
      2 C          63.1260   87.7362   12.4584 C.3     1  UNL1        0.0444
      3 C          62.2481   88.5335   11.5400 C.ar    1  UNL1       -0.0101
      4 C          61.2293   87.8388   10.6859 C.ar    1  UNL1       -0.0091
      5 C          60.3514   88.6362    9.7674 C.ar    1  UNL1       -0.0032
      6 C          60.4922   90.1282    9.7031 C.ar    1  UNL1        0.0010
      7 C          61.5110   90.8228   10.5572 C.ar    1  UNL1        0.0142
      8 C          62.3889   90.0256   11.4756 C.ar    1  UNL1        0.0436
      9 C          61.0885   86.3469   10.7502 C.3     1  UNL1        0.0954
     10 N          61.9664   85.5496   11.6686 N.3     1  UNL1       -0.2934
     11 H          62.4749   84.8844   11.0860 H       1  UNL1        0.1236
     12 N          63.4077   90.7202   12.3298 N.pl3   1  UNL1       -0.3049
     13 C          63.4500   90.4616   13.8067 C.3     1  UNL1        0.1081
     14 C          64.4688   91.1563   14.6609 C.3     1  UNL1        0.0939
     15 N          65.4453   92.1096   14.0380 N.3     1  UNL1       -0.2668
     16 C          65.4029   92.3681   12.5611 C.3     1  UNL1        0.0939
     17 C          64.3842   91.6734   11.7070 C.3     1  UNL1        0.1081
     18 C          66.4641   92.8042   14.8921 C.3     1  UNL1        0.1173
     19 C          67.4946   93.8692   14.6595 C.3     1  UNL1        0.1606
     20 O          67.9048   93.7866   16.1000 O.3     1  UNL1       -0.3507
     21 C          66.8744   92.7218   16.3325 C.3     1  UNL1        0.1606
     22 C          63.8632   85.4469   13.4411 C.3     1  UNL1        0.0886
     23 C          63.0820   84.8646   15.8496 C.3     1  UNL1        0.0899
     24 N          63.2517   84.4787   14.4100 N.3     1  UNL1       -0.2667
     25 C          62.8100   83.1247   13.9393 C.3     1  UNL1        0.0978
     26 C          61.9558   82.2652   14.8234 C.3     1  UNL1        0.0224
     27 C          61.5141   80.9112   14.3527 C.3     1  UNL1        0.0065
     28 C          61.9266   80.4167   12.9980 C.3     1  UNL1        0.0277
     29 C          62.7808   81.2762   12.1139 C.ar    1  UNL1       -0.0073
     30 C          63.1932   80.7816   10.7592 C.ar    1  UNL1       -0.0015
     31 C          64.0474   81.6411    9.8751 C.ar    1  UNL1        0.0203
     32 C          64.4892   82.9952   10.3458 C.ar    1  UNL1        0.0985
     33 N          64.0767   83.4897   11.7005 N.ar    1  UNL1       -0.2471
     34 C          63.2225   82.6302   12.5845 C.ar    1  UNL1        0.0695
@<TRIPOS>BOND
     1    23    24    1
     2    24    22    1
     3     1    22    1
     4     1     2    1
     5     2     3    1
     6     3     4   ar
     7     4     5   ar
     8     5     6   ar
     9     6     7   ar
    10     7     8   ar
    11     8    12    1
    12    12    13    1
    13    13    14    1
    14    14    15    1
    15    15    18    1
    16    18    19    1
    17    19    20    1
    18    20    21    1
    19    15    16    1
    20    16    17    1
    21     4     9    1
    22     9    10    1
    23    25    24    1
    24    25    26    1
    25    26    27    1
    26    27    28    1
    27    28    29    1
    28    29    30   ar
    29    30    31   ar
    30    31    32   ar
    31    32    33   ar
    32    33    34   ar
    33    10     1    1
    34    34    25    1
    35     8     3   ar
    36    17    12    1
    37    34    29   ar
    38    21    18    1
    39    10    11    1
@<TRIPOS>MOLECULE
*****
 34 39 0 0 0
SMALL
GASTEIGER

@<TRIPOS>ATOM
      1 C          63.8517   91.6536   10.6642 C.3     1  UNL1        0.0749
      2 C          64.1570   91.2553   12.0778 C.3     1  UNL1        0.0444
      3 C          65.0752   92.0978   12.9127 C.ar    1  UNL1       -0.0101
      4 C          65.6880   93.3386   12.3341 C.ar    1  UNL1       -0.0091
      5 C          66.6062   94.1811   13.1690 C.ar    1  UNL1       -0.0032
      6 C          66.9116   93.7828   14.5825 C.ar    1  UNL1        0.0010
      7 C          66.2987   92.5419   15.1612 C.ar    1  UNL1        0.0142
      8 C          65.3806   91.6994   14.3262 C.ar    1  UNL1        0.0436
      9 C          65.3827   93.7369   10.9205 C.3     1  UNL1        0.0954
     10 N          64.4645   92.8944   10.0856 N.3     1  UNL1       -0.2934
     11 H          64.9958   92.6050    9.2644 H       1  UNL1        0.1236
     12 N          64.7677   90.4586   14.9049 N.pl3   1  UNL1       -0.3049
     13 C          65.1385   89.1128   14.3557 C.3     1  UNL1        0.1081
     14 C          64.5257   87.8720   14.9344 C.3     1  UNL1        0.0939
     15 N          63.5421   87.9770   16.0621 N.3     1  UNL1       -0.2668
     16 C          63.1714   89.3227   16.6111 C.3     1  UNL1        0.0939
     17 C          63.7842   90.5635   16.0325 C.3     1  UNL1        0.1081
     18 C          62.9292   86.7361   16.6407 C.3     1  UNL1        0.1173
     19 C          62.4215   86.3358   17.9942 C.3     1  UNL1        0.1606
     20 O          62.0626   84.9814   17.4589 O.3     1  UNL1       -0.3507
     21 C          62.5702   85.3816   16.1055 C.3     1  UNL1        0.1606
     22 C          62.9335   90.8111    9.8293 C.3     1  UNL1        0.0886
     23 C          61.1183   90.6567   11.6817 C.3     1  UNL1        0.0899
     24 N          61.7943   90.0785   10.4738 N.3     1  UNL1       -0.2667
     25 C          61.3310   88.7677    9.9106 C.3     1  UNL1        0.0978
     26 C          60.4256   88.7431    8.7150 C.3     1  UNL1        0.0224
     27 C          59.9624   87.4323    8.1518 C.3     1  UNL1        0.0065
     28 C          60.4045   86.1461    8.7842 C.3     1  UNL1        0.0277
     29 C          61.3100   86.1706    9.9800 C.ar    1  UNL1       -0.0073
     30 C          61.7521   84.8844   10.6124 C.ar    1  UNL1       -0.0015
     31 C          62.6575   84.9089   11.8081 C.ar    1  UNL1        0.0203
     32 C          63.1207   86.2197   12.3713 C.ar    1  UNL1        0.0985
     33 N          62.6786   87.5060   11.7388 N.ar    1  UNL1       -0.2471
     34 C          61.7732   87.4814   10.5432 C.ar    1  UNL1        0.0695
@<TRIPOS>BOND
     1    23    24    1
     2    24    22    1
     3     1    22    1
     4     1     2    1
     5     2     3    1
     6     3     4   ar
     7     4     5   ar
     8     5     6   ar
     9     6     7   ar
    10     7     8   ar
    11     8    12    1
    12    12    13    1
    13    13    14    1
    14    14    15    1
    15    15    18    1
    16    18    19    1
    17    19    20    1
    18    20    21    1
    19    15    16    1
    20    16    17    1
    21     4     9    1
    22     9    10    1
    23    25    24    1
    24    25    26    1
    25    26    27    1
    26    27    28    1
    27    28    29    1
    28    29    30   ar
    29    30    31   ar
    30    31    32   ar
    31    32    33   ar
    32    33    34   ar
    33    10     1    1
    34    34    25    1
    35     8     3   ar
    36    17    12    1
    37    34    29   ar
    38    21    18    1
    39    10    11    1
@<TRIPOS>MOLECULE
*****
 34 39 0 0 0
SMALL
GASTEIGER

@<TRIPOS>ATOM
      1 C          63.1755   90.0269   12.1844 C.3     1  UNL1        0.0749
      2 C          64.1356   91.1794   12.1747 C.3     1  UNL1        0.0444
      3 C          64.8535   91.5680   13.4331 C.ar    1  UNL1       -0.0101
      4 C          64.6114   90.8041   14.7011 C.ar    1  UNL1       -0.0091
      5 C          65.3294   91.1928   15.9595 C.ar    1  UNL1       -0.0032
      6 C          66.2895   92.3452   15.9498 C.ar    1  UNL1        0.0010
      7 C          66.5316   93.1090   14.6818 C.ar    1  UNL1        0.0142
      8 C          65.8137   92.7204   13.4234 C.ar    1  UNL1        0.0436
      9 C          63.6513   89.6517   14.7108 C.3     1  UNL1        0.0954
     10 N          62.9334   89.2631   13.4524 N.3     1  UNL1       -0.2934
     11 H          61.9350   89.3300   13.6504 H       1  UNL1        0.1236
     12 N          66.0558   93.4843   12.1554 N.pl3   1  UNL1       -0.3049
     13 C          66.5182   92.7647   10.9230 C.3     1  UNL1        0.1081
     14 C          66.7603   93.5286    9.6550 C.3     1  UNL1        0.0939
     15 N          66.5400   95.0119    9.6193 N.3     1  UNL1       -0.2668
     16 C          66.0777   95.7314   10.8516 C.3     1  UNL1        0.0939
     17 C          65.8355   94.9675   12.1196 C.3     1  UNL1        0.1081
     18 C          66.7822   95.7758    8.3512 C.3     1  UNL1        0.1173
     19 C          66.1623   95.7876    6.9853 C.3     1  UNL1        0.1606
     20 O          67.1246   96.8560    6.5580 O.3     1  UNL1       -0.3507
     21 C          67.7444   96.8441    7.9238 C.3     1  UNL1        0.1606
     22 C          62.4575   89.6383   10.9260 C.3     1  UNL1        0.0886
     23 C          60.1971   88.4995   11.5123 C.3     1  UNL1        0.0899
     24 N          61.5699   88.4292   10.9118 N.3     1  UNL1       -0.2667
     25 C          62.0551   87.1498   10.2972 C.3     1  UNL1        0.0978
     26 C          61.9098   86.9244    8.8214 C.3     1  UNL1        0.0224
     27 C          62.3950   85.6450    8.2068 C.3     1  UNL1        0.0065
     28 C          63.0254   84.5910    9.0680 C.3     1  UNL1        0.0277
     29 C          63.1706   84.8164   10.5439 C.ar    1  UNL1       -0.0073
     30 C          63.8010   83.7624   11.4051 C.ar    1  UNL1       -0.0015
     31 C          63.9463   83.9878   12.8809 C.ar    1  UNL1        0.0203
     32 C          63.4611   85.2672   13.4955 C.ar    1  UNL1        0.0985
     33 N          62.8307   86.3212   12.6343 N.ar    1  UNL1       -0.2471
     34 C          62.6855   86.0958   11.1585 C.ar    1  UNL1        0.0695
@<TRIPOS>BOND
     1    23    24    1
     2    24    22    1
     3     1    22    1
     4     1     2    1
     5     2     3    1
     6     3     4   ar
     7     4     5   ar
     8     5     6   ar
     9     6     7   ar
    10     7     8   ar
    11     8    12    1
    12    12    13    1
    13    13    14    1
    14    14    15    1
    15    15    18    1
    16    18    19    1
    17    19    20    1
    18    20    21    1
    19    15    16    1
    20    16    17    1
    21     4     9    1
    22     9    10    1
    23    25    24    1
    24    25    26    1
    25    26    27    1
    26    27    28    1
    27    28    29    1
    28    29    30   ar
    29    30    31   ar
    30    31    32   ar
    31    32    33   ar
    32    33    34   ar
    33    10     1    1
    34    34    25    1
    35     8     3   ar
    36    17    12    1
    37    34    29   ar
    38    21    18    1
    39    10    11    1
@<TRIPOS>MOLECULE
*****
 34 39 0 0 0
SMALL
GASTEIGER

@<TRIPOS>ATOM
      1 C          63.8786   85.0413   13.6860 C.3     1  UNL1        0.0749
      2 C          63.9137   86.4905   14.0713 C.3     1  UNL1        0.0444
      3 C          63.5298   86.9067   15.4602 C.ar    1  UNL1       -0.0101
      4 C          63.1107   85.8738   16.4639 C.ar    1  UNL1       -0.0091
      5 C          62.7267   86.2901   17.8530 C.ar    1  UNL1       -0.0032
      6 C          62.7618   87.7393   18.2382 C.ar    1  UNL1        0.0010
      7 C          63.1809   88.7723   17.2346 C.ar    1  UNL1        0.0142
      8 C          63.5648   88.3560   15.8456 C.ar    1  UNL1        0.0436
      9 C          63.0756   84.4246   16.0787 C.3     1  UNL1        0.0954
     10 N          63.4596   84.0083   14.6897 N.3     1  UNL1       -0.2934
     11 H          62.6540   83.5234   14.2943 H       1  UNL1        0.1236
     12 N          63.9839   89.3890   14.8419 N.pl3   1  UNL1       -0.3049
     13 C          65.2692   90.1392   15.0298 C.3     1  UNL1        0.1081
     14 C          65.6883   91.1721   14.0261 C.3     1  UNL1        0.0939
     15 N          64.8220   91.4549   12.8345 N.3     1  UNL1       -0.2668
     16 C          63.5367   90.7048   12.6468 C.3     1  UNL1        0.0939
     17 C          63.1177   89.6718   13.6504 C.3     1  UNL1        0.1081
     18 C          65.2411   92.4879   11.8309 C.3     1  UNL1        0.1173
     19 C          66.0547   93.7471   11.8813 C.3     1  UNL1        0.1606
     20 O          65.8337   93.9487   10.4115 O.3     1  UNL1       -0.3507
     21 C          65.0202   92.6896   10.3610 C.3     1  UNL1        0.1606
     22 C          64.2626   84.6249   12.2970 C.3     1  UNL1        0.0886
     23 C          62.6898   82.6195   11.7924 C.3     1  UNL1        0.0899
     24 N          63.2559   83.9548   11.4096 N.3     1  UNL1       -0.2667
     25 C          62.8153   84.6199   10.1394 C.3     1  UNL1        0.0978
     26 C          63.2920   84.0995    8.8158 C.3     1  UNL1        0.0224
     27 C          62.8514   84.7647    7.5456 C.3     1  UNL1        0.0065
     28 C          61.9340   85.9502    7.5990 C.3     1  UNL1        0.0277
     29 C          61.4572   86.4707    8.9226 C.ar    1  UNL1       -0.0073
     30 C          60.5399   87.6562    8.9759 C.ar    1  UNL1       -0.0015
     31 C          60.0631   88.1766   10.2995 C.ar    1  UNL1        0.0203
     32 C          60.5037   87.5115   11.5697 C.ar    1  UNL1        0.0985
     33 N          61.4211   86.3259   11.5163 N.ar    1  UNL1       -0.2471
     34 C          61.8979   85.8055   10.1928 C.ar    1  UNL1        0.0695
@<TRIPOS>BOND
     1    23    24    1
     2    24    22    1
     3     1    22    1
     4     1     2    1
     5     2     3    1
     6     3     4   ar
     7     4     5   ar
     8     5     6   ar
     9     6     7   ar
    10     7     8   ar
    11     8    12    1
    12    12    13    1
    13    13    14    1
    14    14    15    1
    15    15    18    1
    16    18    19    1
    17    19    20    1
    18    20    21    1
    19    15    16    1
    20    16    17    1
    21     4     9    1
    22     9    10    1
    23    25    24    1
    24    25    26    1
    25    26    27    1
    26    27    28    1
    27    28    29    1
    28    29    30   ar
    29    30    31   ar
    30    31    32   ar
    31    32    33   ar
    32    33    34   ar
    33    10     1    1
    34    34    25    1
    35     8     3   ar
    36    17    12    1
    37    34    29   ar
    38    21    18    1
    39    10    11    1
@<TRIPOS>MOLECULE
*****
 34 39 0 0 0
SMALL
GASTEIGER

@<TRIPOS>ATOM
      1 C          62.8102   85.2499    9.7542 C.3     1  UNL1        0.0749
      2 C          62.6443   86.7110   10.0501 C.3     1  UNL1        0.0444
      3 C          61.5747   87.5002    9.3552 C.ar    1  UNL1       -0.0101
      4 C          60.6709   86.8284    8.3643 C.ar    1  UNL1       -0.0091
      5 C          59.6012   87.6177    7.6694 C.ar    1  UNL1       -0.0032
      6 C          59.4354   89.0788    7.9653 C.ar    1  UNL1        0.0010
      7 C          60.3391   89.7507    8.9562 C.ar    1  UNL1        0.0142
      8 C          61.4088   88.9614    9.6511 C.ar    1  UNL1        0.0436
      9 C          60.8368   85.3673    8.0684 C.3     1  UNL1        0.0954
     10 N          61.9064   84.5780    8.7633 N.3     1  UNL1       -0.2934
     11 H          62.5053   84.1890    8.0351 H       1  UNL1        0.1236
     12 N          62.3126   89.6333   10.6419 N.pl3   1  UNL1       -0.3049
     13 C          63.0695   90.8676   10.2499 C.3     1  UNL1        0.1081
     14 C          63.9733   91.5395   11.2408 C.3     1  UNL1        0.0939
     15 N          64.1201   90.9771   12.6236 N.3     1  UNL1       -0.2668
     16 C          63.3632   89.7428   13.0155 C.3     1  UNL1        0.0939
     17 C          62.4594   89.0709   12.0247 C.3     1  UNL1        0.1081
     18 C          65.0239   91.6490   13.6144 C.3     1  UNL1        0.1173
     19 C          65.2407   91.5421   15.0949 C.3     1  UNL1        0.1606
     20 O          66.3020   92.5991   15.0157 O.3     1  UNL1       -0.3507
     21 C          66.0852   92.7060   13.5354 C.3     1  UNL1        0.1606
     22 C          63.8799   84.4606   10.4491 C.3     1  UNL1        0.0886
     23 C          64.0262   81.9320    9.8704 C.3     1  UNL1        0.0899
     24 N          63.6347   83.0274   10.8175 N.3     1  UNL1       -0.2667
     25 C          62.9981   82.6895   12.1330 C.3     1  UNL1        0.0978
     26 C          62.1874   81.4354   12.2738 C.3     1  UNL1        0.0224
     27 C          61.5508   81.0975   13.5893 C.3     1  UNL1        0.0065
     28 C          61.7250   82.0137   14.7641 C.3     1  UNL1        0.0277
     29 C          62.5358   83.2679   14.6234 C.ar    1  UNL1       -0.0073
     30 C          62.7100   84.1840   15.7982 C.ar    1  UNL1       -0.0015
     31 C          63.5208   85.4381   15.6575 C.ar    1  UNL1        0.0203
     32 C          64.1574   85.7760   14.3420 C.ar    1  UNL1        0.0985
     33 N          63.9832   84.8598   13.1672 N.ar    1  UNL1       -0.2471
     34 C          63.1724   83.6058   13.3079 C.ar    1  UNL1        0.0695
@<TRIPOS>BOND
     1    23    24    1
     2    24    22    1
     3     1    22    1
     4     1     2    1
     5     2     3    1
     6     3     4   ar
     7     4     5   ar
     8     5     6   ar
     9     6     7   ar
    10     7     8   ar
    11     8    12    1
    12    12    13    1
    13    13    14    1
    14    14    15    1
    15    15    18    1
    16    18    19    1
    17    19    20    1
    18    20    21    1
    19    15    16    1
    20    16    17    1
    21     4     9    1
    22     9    10    1
    23    25    24    1
    24    25    26    1
    25    26    27    1
    26    27    28    1
    27    28    29    1
    28    29    30   ar
    29    30    31   ar
    30    31    32   ar
    31    32    33   ar
    32    33    34   ar
    33    10     1    1
    34    34    25    1
    35     8     3   ar
    36    17    12    1
    37    34    29   ar
    38    21    18    1
    39    10    11    1
@<TRIPOS>MOLECULE
*****
 34 39 0 0 0
SMALL
GASTEIGER

@<TRIPOS>ATOM
      1 C          64.1701   87.1226   14.5987 C.3     1  UNL1        0.0749
      2 C          63.5262   86.5779   13.3583 C.3     1  UNL1        0.0444
      3 C          63.6363   85.1171   13.0358 C.ar    1  UNL1       -0.0101
      4 C          64.3903   84.2012   13.9537 C.ar    1  UNL1       -0.0091
      5 C          64.5003   82.7403   13.6312 C.ar    1  UNL1       -0.0032
      6 C          63.8564   82.1956   12.3908 C.ar    1  UNL1        0.0010
      7 C          63.1025   83.1115   11.4729 C.ar    1  UNL1        0.0142
      8 C          62.9924   84.5723   11.7954 C.ar    1  UNL1        0.0436
      9 C          65.0341   84.7459   15.1941 C.3     1  UNL1        0.0954
     10 N          64.9241   86.2067   15.5166 N.3     1  UNL1       -0.2934
     11 H          65.8762   86.5677   15.5759 H       1  UNL1        0.1236
     12 N          62.2384   85.4883   10.8775 N.pl3   1  UNL1       -0.3049
     13 C          61.2214   86.4390   11.4360 C.3     1  UNL1        0.1081
     14 C          60.4675   87.3550   10.5181 C.3     1  UNL1        0.0939
     15 N          60.7305   87.3202    9.0417 N.3     1  UNL1       -0.2668
     16 C          61.7474   86.3695    8.4833 C.3     1  UNL1        0.0939
     17 C          62.5014   85.4535    9.4012 C.3     1  UNL1        0.1081
     18 C          59.9765   88.2362    8.1238 C.3     1  UNL1        0.1173
     19 C          59.9400   89.7190    7.9002 C.3     1  UNL1        0.1606
     20 O          58.9103   89.5316    6.8258 O.3     1  UNL1       -0.3507
     21 C          58.9468   88.0489    7.0494 C.3     1  UNL1        0.1606
     22 C          64.0600   88.5835   14.9213 C.3     1  UNL1        0.0886
     23 C          63.4096   89.3779   12.5346 C.3     1  UNL1        0.0899
     24 N          64.1435   89.6023   13.8235 N.3     1  UNL1       -0.2667
     25 C          64.9607   90.8455   14.0146 C.3     1  UNL1        0.0978
     26 C          65.5824   91.1367   15.3483 C.3     1  UNL1        0.0224
     27 C          66.3996   92.3799   15.5394 C.3     1  UNL1        0.0065
     28 C          66.5952   93.3319   14.3968 C.3     1  UNL1        0.0277
     29 C          65.9735   93.0407   13.0631 C.ar    1  UNL1       -0.0073
     30 C          66.1691   93.9927   11.9206 C.ar    1  UNL1       -0.0015
     31 C          65.5474   93.7014   10.5869 C.ar    1  UNL1        0.0203
     32 C          64.7302   92.4582   10.3958 C.ar    1  UNL1        0.0985
     33 N          64.5346   91.5062   11.5384 N.ar    1  UNL1       -0.2471
     34 C          65.1563   91.7975   12.8720 C.ar    1  UNL1        0.0695
@<TRIPOS>BOND
     1    23    24    1
     2    24    22    1
     3     1    22    1
     4     1     2    1
     5     2     3    1
     6     3     4   ar
     7     4     5   ar
     8     5     6   ar
     9     6     7   ar
    10     7     8   ar
    11     8    12    1
    12    12    13    1
    13    13    14    1
    14    14    15    1
    15    15    18    1
    16    18    19    1
    17    19    20    1
    18    20    21    1
    19    15    16    1
    20    16    17    1
    21     4     9    1
    22     9    10    1
    23    25    24    1
    24    25    26    1
    25    26    27    1
    26    27    28    1
    27    28    29    1
    28    29    30   ar
    29    30    31   ar
    30    31    32   ar
    31    32    33   ar
    32    33    34   ar
    33    10     1    1
    34    34    25    1
    35     8     3   ar
    36    17    12    1
    37    34    29   ar
    38    21    18    1
    39    10    11    1
@<TRIPOS>MOLECULE
*****
 34 39 0 0 0
SMALL
GASTEIGER

@<TRIPOS>ATOM
      1 C          61.4724   89.8099   11.4803 C.3     1  UNL1        0.0749
      2 C          61.5696   88.3537   11.1341 C.3     1  UNL1        0.0444
      3 C          61.0023   87.8510    9.8397 C.ar    1  UNL1       -0.0101
      4 C          60.3379   88.8046    8.8915 C.ar    1  UNL1       -0.0091
      5 C          59.7706   88.3019    7.5970 C.ar    1  UNL1       -0.0032
      6 C          59.8678   86.8457    7.2509 C.ar    1  UNL1        0.0010
      7 C          60.5322   85.8921    8.1992 C.ar    1  UNL1        0.0142
      8 C          61.0995   86.3947    9.4935 C.ar    1  UNL1        0.0436
      9 C          60.2407   90.2609    9.2376 C.3     1  UNL1        0.0954
     10 N          60.8080   90.7635   10.5320 N.3     1  UNL1       -0.2934
     11 H          60.0385   91.1976   11.0418 H       1  UNL1        0.1236
     12 N          61.7639   85.4411   10.4418 N.pl3   1  UNL1       -0.3049
     13 C          61.5815   85.6058   11.9216 C.3     1  UNL1        0.1081
     14 C          62.2459   84.6522   12.8699 C.3     1  UNL1        0.0939
     15 N          63.0927   83.5340   12.3384 N.3     1  UNL1       -0.2668
     16 C          63.2751   83.3693   10.8587 C.3     1  UNL1        0.0939
     17 C          62.6107   84.3229    9.9104 C.3     1  UNL1        0.1081
     18 C          63.7571   82.5804   13.2866 C.3     1  UNL1        0.1173
     19 C          63.9153   81.0902   13.3552 C.3     1  UNL1        0.1606
     20 O          64.6967   81.2318   14.6277 O.3     1  UNL1       -0.3507
     21 C          64.5386   82.7218   14.5591 C.3     1  UNL1        0.1606
     22 C          62.0397   90.3127   12.7747 C.3     1  UNL1        0.0886
     23 C          64.0896   89.0332   13.7291 C.3     1  UNL1        0.0899
     24 N          63.5155   90.2295   13.0294 N.3     1  UNL1       -0.2667
     25 C          64.4173   91.3424   12.5844 C.3     1  UNL1        0.0978
     26 C          64.4423   91.7567   11.1430 C.3     1  UNL1        0.0224
     27 C          65.3441   92.8697   10.6980 C.3     1  UNL1        0.0065
     28 C          66.2210   93.5684   11.6945 C.3     1  UNL1        0.0277
     29 C          66.1960   93.1541   13.1360 C.ar    1  UNL1       -0.0073
     30 C          67.0729   93.8528   14.1324 C.ar    1  UNL1       -0.0015
     31 C          67.0479   93.4386   15.5738 C.ar    1  UNL1        0.0203
     32 C          66.1461   92.3256   16.0188 C.ar    1  UNL1        0.0985
     33 N          65.2692   91.6269   15.0223 N.ar    1  UNL1       -0.2471
     34 C          65.2942   92.0411   13.5809 C.ar    1  UNL1        0.0695
@<TRIPOS>BOND
     1    23    24    1
     2    24    22    1
     3     1    22    1
     4     1     2    1
     5     2     3    1
     6     3     4   ar
     7     4     5   ar
     8     5     6   ar
     9     6     7   ar
    10     7     8   ar
    11     8    12    1
    12    12    13    1
    13    13    14    1
    14    14    15    1
    15    15    18    1
    16    18    19    1
    17    19    20    1
    18    20    21    1
    19    15    16    1
    20    16    17    1
    21     4     9    1
    22     9    10    1
    23    25    24    1
    24    25    26    1
    25    26    27    1
    26    27    28    1
    27    28    29    1
    28    29    30   ar
    29    30    31   ar
    30    31    32   ar
    31    32    33   ar
    32    33    34   ar
    33    10     1    1
    34    34    25    1
    35     8     3   ar
    36    17    12    1
    37    34    29   ar
    38    21    18    1
    39    10    11    1
