@<TRIPOS>MOLECULE
*****
 23 26 0 0 0
SMALL
GASTEIGER

@<TRIPOS>ATOM
      1 O          63.7052   82.6304   14.9198 O.2     1  UNL1       -0.2448
      2 C          63.5979   83.8519   14.0559 C.2     1  UNL1        0.3428
      3 C          63.7771   83.7384   12.5710 C.2     1  UNL1        0.0959
      4 C          64.7227   82.8123   11.8653 C.2     1  UNL1        0.1049
      5 N          64.5722   83.0327   10.3892 N.2     1  UNL1       -0.2475
      6 C          63.5335   84.0950   10.1827 C.2     1  UNL1        0.0661
      7 C          62.9716   84.7214    8.9410 C.3     1  UNL1        0.1045
      8 C          61.9183   85.7841    9.0477 C.2     1  UNL1        0.1508
      9 F          61.3565   86.4106    7.8060 F       1  UNL1       -0.2061
     10 C          61.4269   86.2203   10.3961 C.2     1  UNL1        0.1637
     11 F          60.3737   87.2829   10.5028 F       1  UNL1       -0.2021
     12 C          61.9888   85.5938   11.6378 C.2     1  UNL1        0.0331
     13 C          63.0421   84.5312   11.5311 C.2     1  UNL1        0.0240
     14 O          63.3113   85.1869   14.6769 O.3     1  UNL1       -0.4454
     15 C          64.3913   86.2249   14.7557 C.3     1  UNL1        0.2087
     16 C          64.0456   87.6418   15.1060 C.3     1  UNL1        0.0445
     17 C          63.3949   87.9518   16.4215 C.3     1  UNL1        0.0210
     18 C          63.0492   89.3688   16.7718 C.3     1  UNL1        0.0722
     19 N          63.3543   90.4757   15.8067 N.3     1  UNL1       -0.2727
     20 C          64.0051   90.1658   14.4912 C.3     1  UNL1        0.0722
     21 C          64.3507   88.7488   14.1409 C.3     1  UNL1        0.0210
     22 C          63.5622   89.7149   15.5705 C.3     1  UNL1        0.0722
     23 C          63.8748   88.4337   15.2536 C.3     1  UNL1        0.0210
@<TRIPOS>BOND
     1     1     2    2
     2     2    14    1
     3    14    15    1
     4    15    16    1
     5    16    17    1
     6    17    18    1
     7    18    19    1
     8    19    20    1
     9    20    21    1
    10    19    22    1
    11    22    23    1
    12     2     3    1
    13     3     4    2
    14     4     5    1
    15     5     6    2
    16     6     7    1
    17     7     8    1
    18     8     9    1
    19     8    10    2
    20    10    11    1
    21    10    12    1
    22    12    13    2
    23    21    16    1
    24    13     3    1
    25    23    16    1
    26    13     6    1
@<TRIPOS>MOLECULE
*****
 23 26 0 0 0
SMALL
GASTEIGER

@<TRIPOS>ATOM
      1 O          61.4027   84.7550   15.4272 O.2     1  UNL1       -0.2448
      2 C          62.7650   85.0660   14.8818 C.2     1  UNL1        0.3428
      3 C          63.3224   84.2556   13.7493 C.2     1  UNL1        0.0959
      4 C          64.1541   83.0141   13.8792 C.2     1  UNL1        0.1049
      5 N          64.4916   82.5357   12.4982 N.2     1  UNL1       -0.2475
      6 C          63.8685   83.4815   11.5148 C.2     1  UNL1        0.0661
      7 C          63.8658   83.5122   10.0151 C.3     1  UNL1        0.1045
      8 C          63.1404   84.6059    9.2886 C.2     1  UNL1        0.1508
      9 F          63.1377   84.6365    7.7889 F       1  UNL1       -0.2061
     10 C          62.4178   85.6689   10.0618 C.2     1  UNL1        0.1637
     11 F          61.6924   86.7625    9.3354 F       1  UNL1       -0.2021
     12 C          62.4205   85.6381   11.5615 C.2     1  UNL1        0.0331
     13 C          63.1459   84.5445   12.2880 C.2     1  UNL1        0.0240
     14 O          63.5699   86.1873   15.4689 O.3     1  UNL1       -0.4454
     15 C          64.5373   86.9462   14.6097 C.3     1  UNL1        0.2087
     16 C          64.2197   88.3481   14.1810 C.3     1  UNL1        0.0445
     17 C          63.5757   88.5975   12.8494 C.3     1  UNL1        0.0210
     18 C          63.2581   89.9994   12.4208 C.3     1  UNL1        0.0722
     19 N          63.5845   91.1519   13.3237 N.3     1  UNL1       -0.2727
     20 C          64.2285   90.9025   14.6553 C.3     1  UNL1        0.0722
     21 C          64.5461   89.5006   15.0839 C.3     1  UNL1        0.0210
     22 C          63.7773   90.4014   13.6019 C.3     1  UNL1        0.0722
     23 C          64.0645   89.1338   13.9895 C.3     1  UNL1        0.0210
@<TRIPOS>BOND
     1     1     2    2
     2     2    14    1
     3    14    15    1
     4    15    16    1
     5    16    17    1
     6    17    18    1
     7    18    19    1
     8    19    20    1
     9    20    21    1
    10    19    22    1
    11    22    23    1
    12     2     3    1
    13     3     4    2
    14     4     5    1
    15     5     6    2
    16     6     7    1
    17     7     8    1
    18     8     9    1
    19     8    10    2
    20    10    11    1
    21    10    12    1
    22    12    13    2
    23    21    16    1
    24    13     3    1
    25    23    16    1
    26    13     6    1
@<TRIPOS>MOLECULE
*****
 23 26 0 0 0
SMALL
GASTEIGER

@<TRIPOS>ATOM
      1 O          63.9211   86.9519   13.4063 O.2     1  UNL1       -0.2448
      2 C          62.8716   85.9469   13.0341 C.2     1  UNL1        0.3428
      3 C          62.8127   84.6264   13.7430 C.2     1  UNL1        0.0959
      4 C          62.7413   84.4252   15.2278 C.2     1  UNL1        0.1049
      5 N          62.6994   82.9496   15.4941 N.2     1  UNL1       -0.2475
      6 C          62.7448   82.2388   14.1739 C.2     1  UNL1        0.0661
      7 C          62.7315   80.7819   13.8175 C.3     1  UNL1        0.1045
      8 C          62.7882   80.3612   12.3788 C.2     1  UNL1        0.1508
      9 F          62.7748   78.9042   12.0223 F       1  UNL1       -0.2061
     10 C          62.8582   81.3975   11.2965 C.2     1  UNL1        0.1637
     11 F          62.9149   80.9768    9.8579 F       1  UNL1       -0.2021
     12 C          62.8716   82.8545   11.6531 C.2     1  UNL1        0.0331
     13 C          62.8149   83.2751   13.0917 C.2     1  UNL1        0.0240
     14 O          61.8810   86.2625   11.9528 O.3     1  UNL1       -0.4454
     15 C          62.3447   86.8844   10.6689 C.3     1  UNL1        0.2087
     16 C          61.9110   86.3047    9.3552 C.3     1  UNL1        0.0445
     17 C          60.5142   86.5339    8.8588 C.3     1  UNL1        0.0210
     18 C          60.0806   85.9541    7.5451 C.3     1  UNL1        0.0722
     19 N          61.0438   85.1453    6.7278 N.3     1  UNL1       -0.2727
     20 C          62.4406   84.9161    7.2242 C.3     1  UNL1        0.0722
     21 C          62.8742   85.4959    8.5379 C.3     1  UNL1        0.0210
     22 C          61.3271   85.4427    7.4413 C.3     1  UNL1        0.0722
     23 C          61.7193   85.9669    8.6292 C.3     1  UNL1        0.0210
@<TRIPOS>BOND
     1     1     2    2
     2     2    14    1
     3    14    15    1
     4    15    16    1
     5    16    17    1
     6    17    18    1
     7    18    19    1
     8    19    20    1
     9    20    21    1
    10    19    22    1
    11    22    23    1
    12     2     3    1
    13     3     4    2
    14     4     5    1
    15     5     6    2
    16     6     7    1
    17     7     8    1
    18     8     9    1
    19     8    10    2
    20    10    11    1
    21    10    12    1
    22    12    13    2
    23    21    16    1
    24    13     3    1
    25    23    16    1
    26    13     6    1
@<TRIPOS>MOLECULE
*****
 23 26 0 0 0
SMALL
GASTEIGER

@<TRIPOS>ATOM
      1 O          64.6796   82.8505   10.0906 O.2     1  UNL1       -0.2448
      2 C          63.6008   83.6749   10.7280 C.2     1  UNL1        0.3428
      3 C          63.1354   83.3560   12.1179 C.2     1  UNL1        0.0959
      4 C          62.3940   82.1216   12.5380 C.2     1  UNL1        0.1049
      5 N          62.1302   82.2182   14.0114 N.2     1  UNL1       -0.2475
      6 C          62.7085   83.5124   14.5020 C.2     1  UNL1        0.0661
      7 C          62.7497   84.1414   15.8631 C.3     1  UNL1        0.1045
      8 C          63.4121   85.4736   16.0540 C.2     1  UNL1        0.1508
      9 F          63.4533   86.1026   17.4151 F       1  UNL1       -0.2061
     10 C          64.0334   86.1768   14.8838 C.2     1  UNL1        0.1637
     11 F          64.6958   87.5090   15.0746 F       1  UNL1       -0.2021
     12 C          63.9922   85.5478   13.5226 C.2     1  UNL1        0.0331
     13 C          63.3298   84.2156   13.3317 C.2     1  UNL1        0.0240
     14 O          62.9873   84.8183    9.9756 O.3     1  UNL1       -0.4454
     15 C          61.7759   85.5129   10.5234 C.3     1  UNL1        0.2087
     16 C          61.1332   86.6240    9.7472 C.3     1  UNL1        0.0445
     17 C          60.2038   86.3068    8.6134 C.3     1  UNL1        0.0210
     18 C          59.5611   87.4179    7.8373 C.3     1  UNL1        0.0722
     19 N          59.8479   88.8462    8.1949 N.3     1  UNL1       -0.2727
     20 C          60.7773   89.1633    9.3288 C.3     1  UNL1        0.0722
     21 C          61.4200   88.0522   10.1049 C.3     1  UNL1        0.0210
     22 C          60.2236   88.2713    8.6491 C.3     1  UNL1        0.0722
     23 C          60.8047   87.2667    9.3510 C.3     1  UNL1        0.0210
@<TRIPOS>BOND
     1     1     2    2
     2     2    14    1
     3    14    15    1
     4    15    16    1
     5    16    17    1
     6    17    18    1
     7    18    19    1
     8    19    20    1
     9    20    21    1
    10    19    22    1
    11    22    23    1
    12     2     3    1
    13     3     4    2
    14     4     5    1
    15     5     6    2
    16     6     7    1
    17     7     8    1
    18     8     9    1
    19     8    10    2
    20    10    11    1
    21    10    12    1
    22    12    13    2
    23    21    16    1
    24    13     3    1
    25    23    16    1
    26    13     6    1
@<TRIPOS>MOLECULE
*****
 23 26 0 0 0
SMALL
GASTEIGER

@<TRIPOS>ATOM
      1 O          65.9105   85.7304   15.0701 O.2     1  UNL1       -0.2448
      2 C          64.5086   85.7093   14.5370 C.2     1  UNL1        0.3428
      3 C          63.7748   84.4075   14.4079 C.2     1  UNL1        0.0959
      4 C          62.9853   83.7294   15.4882 C.2     1  UNL1        0.1049
      5 N          62.4242   82.4580   14.9237 N.2     1  UNL1       -0.2475
      6 C          62.8669   82.3503   13.4945 C.2     1  UNL1        0.0661
      7 C          62.6177   81.3108   12.4423 C.3     1  UNL1        0.1045
      8 C          63.2032   81.4760   11.0712 C.2     1  UNL1        0.1508
      9 F          62.9541   80.4365   10.0190 F       1  UNL1       -0.2061
     10 C          64.0379   82.6809   10.7524 C.2     1  UNL1        0.1637
     11 F          64.6235   82.8462    9.3814 F       1  UNL1       -0.2021
     12 C          64.2871   83.7204   11.8047 C.2     1  UNL1        0.0331
     13 C          63.7016   83.5551   13.1757 C.2     1  UNL1        0.0240
     14 O          63.8405   86.9901   14.1331 O.3     1  UNL1       -0.4454
     15 C          64.1172   88.2529   14.8940 C.3     1  UNL1        0.2087
     16 C          64.3380   89.5400   14.1561 C.3     1  UNL1        0.0445
     17 C          63.5149   89.8603   12.9437 C.3     1  UNL1        0.0210
     18 C          63.7358   91.1475   12.2059 C.3     1  UNL1        0.0722
     19 N          64.7797   92.1144   12.6805 N.3     1  UNL1       -0.2727
     20 C          65.6028   91.7941   13.8929 C.3     1  UNL1        0.0722
     21 C          65.3820   90.5070   14.6307 C.3     1  UNL1        0.0210
     22 C          64.6949   91.4217   13.1174 C.3     1  UNL1        0.0722
     23 C          64.4953   90.2579   13.7847 C.3     1  UNL1        0.0210
@<TRIPOS>BOND
     1     1     2    2
     2     2    14    1
     3    14    15    1
     4    15    16    1
     5    16    17    1
     6    17    18    1
     7    18    19    1
     8    19    20    1
     9    20    21    1
    10    19    22    1
    11    22    23    1
    12     2     3    1
    13     3     4    2
    14     4     5    1
    15     5     6    2
    16     6     7    1
    17     7     8    1
    18     8     9    1
    19     8    10    2
    20    10    11    1
    21    10    12    1
    22    12    13    2
    23    21    16    1
    24    13     3    1
    25    23    16    1
    26    13     6    1
@<TRIPOS>MOLECULE
*****
 23 26 0 0 0
SMALL
GASTEIGER

@<TRIPOS>ATOM
      1 O          60.4482   87.3764   11.5090 O.2     1  UNL1       -0.2448
      2 C          61.3391   87.4380   10.3038 C.2     1  UNL1        0.3428
      3 C          62.1206   86.2276    9.8861 C.2     1  UNL1        0.0959
      4 C          62.4493   85.8335    8.4767 C.2     1  UNL1        0.1049
      5 N          63.2424   84.5613    8.5241 N.2     1  UNL1       -0.2475
      6 C          63.4039   84.1691    9.9629 C.2     1  UNL1        0.0661
      7 C          64.0927   83.0072   10.6153 C.3     1  UNL1        0.1045
      8 C          64.0882   82.8753   12.1095 C.2     1  UNL1        0.1508
      9 F          64.7770   81.7134   12.7619 F       1  UNL1       -0.2061
     10 C          63.3949   83.9052   12.9513 C.2     1  UNL1        0.1637
     11 F          63.3903   83.7732   14.4455 F       1  UNL1       -0.2021
     12 C          62.7060   85.0670   12.2989 C.2     1  UNL1        0.0331
     13 C          62.7106   85.1990   10.8047 C.2     1  UNL1        0.0240
     14 O          61.4484   88.7099    9.5162 O.3     1  UNL1       -0.4454
     15 C          61.3502   90.0345   10.2132 C.3     1  UNL1        0.2087
     16 C          62.5367   90.5857   10.9470 C.3     1  UNL1        0.0445
     17 C          62.8057   90.1647   12.3613 C.3     1  UNL1        0.0210
     18 C          63.9922   90.7159   13.0951 C.3     1  UNL1        0.0722
     19 N          64.9097   91.6881   12.4144 N.3     1  UNL1       -0.2727
     20 C          64.6406   92.1090   11.0001 C.3     1  UNL1        0.0722
     21 C          63.4542   91.5578   10.2663 C.3     1  UNL1        0.0210
     22 C          64.2722   91.4131   11.9718 C.3     1  UNL1        0.0722
     23 C          63.1994   90.9147   11.3083 C.3     1  UNL1        0.0210
@<TRIPOS>BOND
     1     1     2    2
     2     2    14    1
     3    14    15    1
     4    15    16    1
     5    16    17    1
     6    17    18    1
     7    18    19    1
     8    19    20    1
     9    20    21    1
    10    19    22    1
    11    22    23    1
    12     2     3    1
    13     3     4    2
    14     4     5    1
    15     5     6    2
    16     6     7    1
    17     7     8    1
    18     8     9    1
    19     8    10    2
    20    10    11    1
    21    10    12    1
    22    12    13    2
    23    21    16    1
    24    13     3    1
    25    23    16    1
    26    13     6    1
@<TRIPOS>MOLECULE
*****
 23 26 0 0 0
SMALL
GASTEIGER

@<TRIPOS>ATOM
      1 O          65.5807   84.8821   14.2566 O.2     1  UNL1       -0.2448
      2 C          64.3119   84.6314   15.0162 C.2     1  UNL1        0.3428
      3 C          63.7438   85.7009   15.9014 C.2     1  UNL1        0.0959
      4 C          62.9862   85.4794   17.1769 C.2     1  UNL1        0.1049
      5 N          62.6079   86.8213   17.7302 N.2     1  UNL1       -0.2475
      6 C          63.1316   87.8721   16.7966 C.2     1  UNL1        0.0661
      7 C          63.0599   89.3700   16.8298 C.3     1  UNL1        0.1045
      8 C          63.6902   90.1755   15.7325 C.2     1  UNL1        0.1508
      9 F          63.6185   91.6734   15.7656 F       1  UNL1       -0.2061
     10 C          64.3923   89.4831   14.6022 C.2     1  UNL1        0.1637
     11 F          65.0227   90.2885   13.5050 F       1  UNL1       -0.2021
     12 C          64.4640   87.9851   14.5691 C.2     1  UNL1        0.0331
     13 C          63.8336   87.1796   15.6663 C.2     1  UNL1        0.0240
     14 O          63.6110   83.3112   14.8907 O.3     1  UNL1       -0.4454
     15 C          62.5958   83.1009   13.8066 C.3     1  UNL1        0.2087
     16 C          62.9092   83.5063   12.3968 C.3     1  UNL1        0.0445
     17 C          62.3900   84.8059   11.8571 C.3     1  UNL1        0.0210
     18 C          62.7034   85.2112   10.4473 C.3     1  UNL1        0.0722
     19 N          63.5359   84.3169    9.5772 N.3     1  UNL1       -0.2727
     20 C          64.0551   83.0172   10.1170 C.3     1  UNL1        0.0722
     21 C          63.7417   82.6119   11.5268 C.3     1  UNL1        0.0210
     22 C          63.3905   84.0523   10.3432 C.3     1  UNL1        0.0722
     23 C          63.1072   83.6857   11.6179 C.3     1  UNL1        0.0210
@<TRIPOS>BOND
     1     1     2    2
     2     2    14    1
     3    14    15    1
     4    15    16    1
     5    16    17    1
     6    17    18    1
     7    18    19    1
     8    19    20    1
     9    20    21    1
    10    19    22    1
    11    22    23    1
    12     2     3    1
    13     3     4    2
    14     4     5    1
    15     5     6    2
    16     6     7    1
    17     7     8    1
    18     8     9    1
    19     8    10    2
    20    10    11    1
    21    10    12    1
    22    12    13    2
    23    21    16    1
    24    13     3    1
    25    23    16    1
    26    13     6    1
@<TRIPOS>MOLECULE
*****
 23 26 0 0 0
SMALL
GASTEIGER

@<TRIPOS>ATOM
      1 O          60.5508   89.4530   12.3269 O.2     1  UNL1       -0.2448
      2 C          61.3877   89.7590   11.1202 C.2     1  UNL1        0.3428
      3 C          62.6438   90.5661   11.2638 C.2     1  UNL1        0.0959
      4 C          63.3452   91.3085   10.1652 C.2     1  UNL1        0.1049
      5 N          64.5540   91.9737   10.7536 N.2     1  UNL1       -0.2475
      6 C          64.5998   91.6424   12.2159 C.2     1  UNL1        0.0661
      7 C          65.5639   92.0205   13.3010 C.3     1  UNL1        0.1045
      8 C          65.3474   91.5286   14.7015 C.2     1  UNL1        0.1508
      9 F          66.3115   91.9067   15.7866 F       1  UNL1       -0.2061
     10 C          64.1668   90.6587   15.0168 C.2     1  UNL1        0.1637
     11 F          63.9504   90.1668   16.4172 F       1  UNL1       -0.2021
     12 C          63.2027   90.2806   13.9316 C.2     1  UNL1        0.0331
     13 C          63.4192   90.7724   12.5312 C.2     1  UNL1        0.0240
     14 O          60.9684   89.2579    9.7700 O.3     1  UNL1       -0.4454
     15 C          60.4565   87.8563    9.6159 C.3     1  UNL1        0.2087
     16 C          61.3879   86.6940    9.7930 C.3     1  UNL1        0.0445
     17 C          61.4635   85.9880   11.1144 C.3     1  UNL1        0.0210
     18 C          62.3949   84.8257   11.2915 C.3     1  UNL1        0.0722
     19 N          63.2508   84.3693   10.1472 N.3     1  UNL1       -0.2727
     20 C          63.1752   85.0753    8.8259 C.3     1  UNL1        0.0722
     21 C          62.2438   86.2376    8.6488 C.3     1  UNL1        0.0210
     22 C          62.7556   85.0110   10.0024 C.3     1  UNL1        0.0722
     23 C          61.9134   86.0620    9.8421 C.3     1  UNL1        0.0210
@<TRIPOS>BOND
     1     1     2    2
     2     2    14    1
     3    14    15    1
     4    15    16    1
     5    16    17    1
     6    17    18    1
     7    18    19    1
     8    19    20    1
     9    20    21    1
    10    19    22    1
    11    22    23    1
    12     2     3    1
    13     3     4    2
    14     4     5    1
    15     5     6    2
    16     6     7    1
    17     7     8    1
    18     8     9    1
    19     8    10    2
    20    10    11    1
    21    10    12    1
    22    12    13    2
    23    21    16    1
    24    13     3    1
    25    23    16    1
    26    13     6    1
@<TRIPOS>MOLECULE
*****
 23 26 0 0 0
SMALL
GASTEIGER

@<TRIPOS>ATOM
      1 O          62.8636   89.9515   10.1669 O.2     1  UNL1       -0.2448
      2 C          62.4631   89.5008   11.5404 C.2     1  UNL1        0.3428
      3 C          63.4299   89.6214   12.6809 C.2     1  UNL1        0.0959
      4 C          63.6220   88.6224   13.7832 C.2     1  UNL1        0.1049
      5 N          64.6851   89.1458   14.7029 N.2     1  UNL1       -0.2475
      6 C          65.1499   90.4683   14.1691 C.2     1  UNL1        0.0661
      7 C          66.1794   91.4428   14.6595 C.3     1  UNL1        0.1045
      8 C          66.4330   92.7114   13.9001 C.2     1  UNL1        0.1508
      9 F          67.4625   93.6859   14.3905 F       1  UNL1       -0.2061
     10 C          65.6572   93.0053   12.6505 C.2     1  UNL1        0.1637
     11 F          65.9109   94.2738   11.8911 F       1  UNL1       -0.2021
     12 C          64.6278   92.0307   12.1601 C.2     1  UNL1        0.0331
     13 C          64.3741   90.7622   12.9194 C.2     1  UNL1        0.0240
     14 O          61.0959   88.9295   11.7733 O.3     1  UNL1       -0.4454
     15 C          60.5825   87.8295   10.8920 C.3     1  UNL1        0.2087
     16 C          61.4915   86.7075   10.4862 C.3     1  UNL1        0.0445
     17 C          61.8713   85.6522   11.4823 C.3     1  UNL1        0.0210
     18 C          62.7804   84.5303   11.0764 C.3     1  UNL1        0.0722
     19 N          63.3097   84.4636    9.6745 N.3     1  UNL1       -0.2727
     20 C          62.9299   85.5189    8.6784 C.3     1  UNL1        0.0722
     21 C          62.0209   86.6409    9.0843 C.3     1  UNL1        0.0210
     22 C          62.8145   85.0975    9.8504 C.3     1  UNL1        0.0722
     23 C          61.9925   86.1120   10.2172 C.3     1  UNL1        0.0210
@<TRIPOS>BOND
     1     1     2    2
     2     2    14    1
     3    14    15    1
     4    15    16    1
     5    16    17    1
     6    17    18    1
     7    18    19    1
     8    19    20    1
     9    20    21    1
    10    19    22    1
    11    22    23    1
    12     2     3    1
    13     3     4    2
    14     4     5    1
    15     5     6    2
    16     6     7    1
    17     7     8    1
    18     8     9    1
    19     8    10    2
    20    10    11    1
    21    10    12    1
    22    12    13    2
    23    21    16    1
    24    13     3    1
    25    23    16    1
    26    13     6    1
