@<TRIPOS>MOLECULE
*****
 43 46 0 0 0
SMALL
GASTEIGER

@<TRIPOS>ATOM
      1 C          63.6843   89.8560   11.8293 C.3     1  UNL1        0.1678
      2 C          64.1154   89.1291   13.0685 C.2     1  UNL1        0.2492
      3 O          63.7194   88.4409   12.9985 O.2     1  UNL1       -0.2727
      4 N          65.0491   89.5922   14.1473 N.am    1  UNL1       -0.2517
      5 C          65.7823   90.8965   14.2533 C.ar    1  UNL1        0.0679
      6 C          66.6176   90.9560   15.4978 C.ar    1  UNL1        0.0162
      7 C          67.4334   92.1789   15.7956 C.ar    1  UNL1        0.0014
      8 C          67.4140   93.3423   14.8490 C.ar    1  UNL1        0.0014
      9 C          66.5788   93.2828   13.6045 C.ar    1  UNL1        0.0162
     10 C          65.7629   92.0599   13.3067 C.ar    1  UNL1        0.0676
     11 N          65.0055   92.2062   12.0202 N.am    1  UNL1       -0.2556
     12 C          65.1987   93.5053   11.2955 C.2     1  UNL1        0.2535
     13 O          64.4867   93.7538    9.9988 O.2     1  UNL1       -0.2726
     14 C          64.0804   91.2255   11.3627 C.3     1  UNL1        0.1067
     15 C          63.4709   91.6734   10.0674 C.3     1  UNL1        0.0242
     16 C          61.2663   89.0938   11.2615 C.2     1  UNL1        0.2371
     17 O          60.7549   89.8124   12.4748 O.2     1  UNL1       -0.2737
     18 N          62.7310   89.1156   10.9388 N.am    1  UNL1       -0.2959
     19 H          63.0667   88.6439   10.1425 H       1  UNL1        0.1499
     20 C          60.3130   88.3533   10.3711 C.3     1  UNL1        0.1316
     21 C          59.5829   89.0829    9.2826 C.3     1  UNL1        0.0270
     22 C          61.2622   85.9628   10.7378 C.3     1  UNL1        0.0862
     23 N          60.0899   86.8833   10.5689 N.3     1  UNL1       -0.2902
     24 H          59.5139   86.7828   11.4047 H       1  UNL1        0.1237
     25 C          65.2801   88.6227   15.2684 C.3     1  UNL1        0.1278
     26 C          64.1411   87.8023   15.7972 C.ar    1  UNL1        0.0320
     27 C          63.1610   88.4099   16.7563 C.ar    1  UNL1        0.1363
     28 C          62.0220   87.5896   17.2851 C.ar    1  UNL1        0.0366
     29 C          61.8632   86.1614   16.8547 C.ar    1  UNL1        0.0031
     30 C          62.8433   85.5537   15.8956 C.ar    1  UNL1        0.0004
     31 C          62.6845   84.1256   15.4653 C.ar    1  UNL1        0.0067
     32 C          63.6647   83.5178   14.5061 C.ar    1  UNL1        0.0346
     33 BR         63.5058   82.0897   14.0758 Br      1  UNL1       -0.0490
     34 C          64.8036   84.3383   13.9773 C.ar    1  UNL1        0.0067
     35 C          64.9625   85.7664   14.4076 C.ar    1  UNL1        0.0003
     36 C          63.9823   86.3741   15.3668 C.ar    1  UNL1        0.0006
     37 O          63.3198   89.8381   17.1866 O.3     1  UNL1       -0.4717
     38 C          63.0232   90.9491   16.2234 C.3     1  UNL1        0.2525
     39 C          66.1039   94.5558   11.8674 C.3     1  UNL1        0.2357
     40 S          66.5594   95.7002   11.0113 S.O2    1  UNL1        0.0007
     41 C          67.0147   96.8446   10.1553 C.3     1  UNL1        0.1766
     42 O          67.4704   94.7755   10.2598 O.2     1  UNL1       -0.1725
     43 O          65.6483   96.6249   11.7629 O.2     1  UNL1       -0.1725
@<TRIPOS>BOND
     1    22    23    1
     2    23    20    1
     3    20    21    1
     4    20    16    1
     5    16    17    2
     6    16    18   am
     7     1    18    1
     8     1     2    1
     9     2     3    2
    10     2     4   am
    11     4    25    1
    12    25    26    1
    13    26    27   ar
    14    27    37    1
    15    37    38    1
    16    27    28   ar
    17    28    29   ar
    18    29    30   ar
    19    30    31   ar
    20    31    32   ar
    21    32    33    1
    22    32    34   ar
    23    34    35   ar
    24    35    36   ar
    25     4     5    1
    26     5     6   ar
    27     6     7   ar
    28     7     8   ar
    29     8     9   ar
    30     9    10   ar
    31    10    11    1
    32    11    12   am
    33    12    13    2
    34    12    39    1
    35    39    40    1
    36    40    41    1
    37    40    42    2
    38    40    43    2
    39    11    14    1
    40    14    15    1
    41    14     1    1
    42    36    26   ar
    43    10     5   ar
    44    36    30   ar
    45    23    24    1
    46    18    19    1
@<TRIPOS>MOLECULE
*****
 43 46 0 0 0
SMALL
GASTEIGER

@<TRIPOS>ATOM
      1 C          62.1572   88.3311   10.3781 C.3     1  UNL1        0.1678
      2 C          62.4506   89.5029   11.2674 C.2     1  UNL1        0.2492
      3 O          62.2031   90.1130   10.8182 O.2     1  UNL1       -0.2727
      4 N          63.0529   89.5065   12.6412 N.am    1  UNL1       -0.2517
      5 C          63.5106   88.3394   13.4649 C.ar    1  UNL1        0.0679
      6 C          64.0551   88.7838   14.7900 C.ar    1  UNL1        0.0162
      7 C          64.5681   87.7691   15.7684 C.ar    1  UNL1        0.0014
      8 C          64.5365   86.3101   15.4217 C.ar    1  UNL1        0.0014
      9 C          63.9919   85.8657   14.0966 C.ar    1  UNL1        0.0162
     10 C          63.4790   86.8803   13.1182 C.ar    1  UNL1        0.0676
     11 N          62.9819   86.2281   11.8622 N.am    1  UNL1       -0.2556
     12 C          63.0869   84.7324   11.8202 C.2     1  UNL1        0.2535
     13 O          62.6178   83.9813   10.6094 O.2     1  UNL1       -0.2726
     14 C          62.3936   86.8737   10.6427 C.3     1  UNL1        0.1067
     15 C          61.9882   85.9383    9.5425 C.3     1  UNL1        0.0242
     16 C          60.0718   88.4875    8.8365 C.2     1  UNL1        0.2371
     17 O          59.2074   87.9854    9.9549 O.2     1  UNL1       -0.2737
     18 N          61.5466   88.6604    9.0481 N.am    1  UNL1       -0.2959
     19 H          62.1139   88.9899    8.3141 H       1  UNL1        0.1499
     20 C          59.4612   88.8167    7.5065 C.3     1  UNL1        0.1316
     21 C          58.5764   87.8189    6.8198 C.3     1  UNL1        0.0270
     22 C          58.9738   90.5550    5.6382 C.3     1  UNL1        0.0862
     23 N          59.7354   90.1437    6.8633 N.3     1  UNL1       -0.2902
     24 H          59.5603   90.8562    7.5719 H       1  UNL1        0.1237
     25 C          63.2196   90.8557   13.2752 C.3     1  UNL1        0.1278
     26 C          64.5938   91.3899   13.5514 C.ar    1  UNL1        0.0320
     27 C          65.1060   91.4496   14.9599 C.ar    1  UNL1        0.1363
     28 C          66.4802   91.9839   15.2362 C.ar    1  UNL1        0.0366
     29 C          67.3420   92.4584   14.1039 C.ar    1  UNL1        0.0031
     30 C          66.8297   92.3987   12.6954 C.ar    1  UNL1        0.0004
     31 C          67.6915   92.8733   11.5631 C.ar    1  UNL1        0.0067
     32 C          67.1793   92.8136   10.1545 C.ar    1  UNL1        0.0346
     33 BR         68.0411   93.2882    9.0223 Br      1  UNL1       -0.0490
     34 C          65.8051   92.2793    9.8784 C.ar    1  UNL1        0.0067
     35 C          64.9432   91.8048   11.0106 C.ar    1  UNL1        0.0003
     36 C          65.4556   91.8645   12.4191 C.ar    1  UNL1        0.0006
     37 O          64.2442   90.9751   16.0922 O.3     1  UNL1       -0.4717
     38 C          63.8596   91.9222   17.1901 C.3     1  UNL1        0.2525
     39 C          63.6611   83.9876   12.9889 C.3     1  UNL1        0.2357
     40 S          63.4347   82.5107   13.1216 S.O2    1  UNL1        0.0007
     41 C          63.2082   81.0340   13.2543 C.3     1  UNL1        0.1766
     42 O          64.6634   82.2488   12.3020 O.2     1  UNL1       -0.1725
     43 O          62.2060   82.7728   13.9411 O.2     1  UNL1       -0.1725
@<TRIPOS>BOND
     1    22    23    1
     2    23    20    1
     3    20    21    1
     4    20    16    1
     5    16    17    2
     6    16    18   am
     7     1    18    1
     8     1     2    1
     9     2     3    2
    10     2     4   am
    11     4    25    1
    12    25    26    1
    13    26    27   ar
    14    27    37    1
    15    37    38    1
    16    27    28   ar
    17    28    29   ar
    18    29    30   ar
    19    30    31   ar
    20    31    32   ar
    21    32    33    1
    22    32    34   ar
    23    34    35   ar
    24    35    36   ar
    25     4     5    1
    26     5     6   ar
    27     6     7   ar
    28     7     8   ar
    29     8     9   ar
    30     9    10   ar
    31    10    11    1
    32    11    12   am
    33    12    13    2
    34    12    39    1
    35    39    40    1
    36    40    41    1
    37    40    42    2
    38    40    43    2
    39    11    14    1
    40    14    15    1
    41    14     1    1
    42    36    26   ar
    43    10     5   ar
    44    36    30   ar
    45    23    24    1
    46    18    19    1
@<TRIPOS>MOLECULE
*****
 43 46 0 0 0
SMALL
GASTEIGER

@<TRIPOS>ATOM
      1 C          60.0303   93.7492   -2.1156 C.3     1  UNL1        0.1678
      2 C          60.6178   93.9435   -0.7491 C.2     1  UNL1        0.2492
      3 O          60.0624   93.6092   -0.2852 O.2     1  UNL1       -0.2727
      4 N          61.9137   94.5985   -0.3728 N.am    1  UNL1       -0.2517
      5 C          62.9422   95.2209   -1.2698 C.ar    1  UNL1        0.0679
      6 C          64.0974   95.7660   -0.4835 C.ar    1  UNL1        0.0162
      7 C          65.2392   96.4323   -1.1922 C.ar    1  UNL1        0.0014
      8 C          65.2258   96.5535   -2.6872 C.ar    1  UNL1        0.0014
      9 C          64.0706   96.0084   -3.4736 C.ar    1  UNL1        0.0162
     10 C          62.9289   95.3421   -2.7649 C.ar    1  UNL1        0.0676
     11 N          61.8836   94.8708   -3.7320 N.am    1  UNL1       -0.2556
     12 C          62.1657   95.1446   -5.1796 C.2     1  UNL1        0.2535
     13 O          61.1844   94.7143   -6.2294 O.2     1  UNL1       -0.2726
     14 C          60.5937   94.1619   -3.4431 C.3     1  UNL1        0.1067
     15 C          59.7564   93.8206   -4.6399 C.3     1  UNL1        0.0242
     16 C          57.4449   93.8103   -1.8675 C.2     1  UNL1        0.2371
     17 O          57.5117   95.2703   -1.5297 O.2     1  UNL1       -0.2737
     18 N          58.7041   93.0498   -2.1604 N.am    1  UNL1       -0.2959
     19 H          58.6602   92.0916   -2.3821 H       1  UNL1        0.1499
     20 C          56.1187   93.1108   -1.9123 C.3     1  UNL1        0.1316
     21 C          54.8498   93.9103   -1.9444 C.3     1  UNL1        0.0270
     22 C          55.9602   90.8763   -3.2284 C.3     1  UNL1        0.0862
     23 N          56.0613   91.6120   -1.9251 N.3     1  UNL1       -0.2902
     24 H          56.9094   91.2810   -1.4651 H       1  UNL1        0.1237
     25 C          62.2218   94.6359    1.0948 C.3     1  UNL1        0.1278
     26 C          62.5263   93.3643    1.8299 C.ar    1  UNL1        0.0320
     27 C          63.8405   92.6727    1.6196 C.ar    1  UNL1        0.1363
     28 C          64.1450   91.4012    2.3548 C.ar    1  UNL1        0.0366
     29 C          63.1351   90.8213    3.3002 C.ar    1  UNL1        0.0031
     30 C          61.8209   91.5129    3.5105 C.ar    1  UNL1        0.0004
     31 C          60.8110   90.9330    4.4559 C.ar    1  UNL1        0.0067
     32 C          59.4966   91.6246    4.6663 C.ar    1  UNL1        0.0346
     33 BR         58.4868   91.0446    5.6117 Br      1  UNL1       -0.0490
     34 C          59.1923   92.8961    3.9311 C.ar    1  UNL1        0.0067
     35 C          60.2021   93.4761    2.9856 C.ar    1  UNL1        0.0003
     36 C          61.5164   92.7844    2.7754 C.ar    1  UNL1        0.0006
     37 O          64.8504   93.2526    0.6742 O.3     1  UNL1       -0.4717
     38 C          66.1546   93.7765    1.1985 C.3     1  UNL1        0.2525
     39 C          63.4290   95.8487   -5.5775 C.3     1  UNL1        0.2357
     40 S          64.3606   95.2154   -6.5680 S.O2    1  UNL1        0.0007
     41 C          65.2920   94.5822   -7.5586 C.3     1  UNL1        0.1766
     42 O          64.0896   93.8700   -5.9626 O.2     1  UNL1       -0.1725
     43 O          64.6315   96.5608   -7.1734 O.2     1  UNL1       -0.1725
@<TRIPOS>BOND
     1    22    23    1
     2    23    20    1
     3    20    21    1
     4    20    16    1
     5    16    17    2
     6    16    18   am
     7     1    18    1
     8     1     2    1
     9     2     3    2
    10     2     4   am
    11     4    25    1
    12    25    26    1
    13    26    27   ar
    14    27    37    1
    15    37    38    1
    16    27    28   ar
    17    28    29   ar
    18    29    30   ar
    19    30    31   ar
    20    31    32   ar
    21    32    33    1
    22    32    34   ar
    23    34    35   ar
    24    35    36   ar
    25     4     5    1
    26     5     6   ar
    27     6     7   ar
    28     7     8   ar
    29     8     9   ar
    30     9    10   ar
    31    10    11    1
    32    11    12   am
    33    12    13    2
    34    12    39    1
    35    39    40    1
    36    40    41    1
    37    40    42    2
    38    40    43    2
    39    11    14    1
    40    14    15    1
    41    14     1    1
    42    36    26   ar
    43    10     5   ar
    44    36    30   ar
    45    23    24    1
    46    18    19    1
@<TRIPOS>MOLECULE
*****
 43 46 0 0 0
SMALL
GASTEIGER

@<TRIPOS>ATOM
      1 C          62.2303   87.4447   10.5923 C.3     1  UNL1        0.1678
      2 C          62.5148   88.6476   11.4422 C.2     1  UNL1        0.2492
      3 O          62.2772   89.2415   10.9667 O.2     1  UNL1       -0.2727
      4 N          63.0952   88.6999   12.8243 N.am    1  UNL1       -0.2517
      5 C          63.5345   87.5624   13.6980 C.ar    1  UNL1        0.0679
      6 C          64.0599   88.0537   15.0143 C.ar    1  UNL1        0.0162
      7 C          64.5527   87.0741   16.0377 C.ar    1  UNL1        0.0014
      8 C          64.5201   85.6033   15.7449 C.ar    1  UNL1        0.0014
      9 C          63.9947   85.1121   14.4287 C.ar    1  UNL1        0.0162
     10 C          63.5019   86.0917   13.4052 C.ar    1  UNL1        0.0676
     11 N          63.0219   85.3951   12.1665 N.am    1  UNL1       -0.2556
     12 C          63.1209   83.8985   12.1816 C.2     1  UNL1        0.2535
     13 O          62.6678   83.1047   10.9922 O.2     1  UNL1       -0.2726
     14 C          62.4560   85.9972   10.9146 C.3     1  UNL1        0.1067
     15 C          62.0640   85.0231    9.8434 C.3     1  UNL1        0.0242
     16 C          60.1964   88.1054    9.1169 C.2     1  UNL1        0.2371
     17 O          59.3382   88.2022   10.3434 O.2     1  UNL1       -0.2737
     18 N          61.6424   87.7267    9.2414 N.am    1  UNL1       -0.2959
     19 H          62.2057   87.6631    8.4364 H       1  UNL1        0.1499
     20 C          59.6085   88.3873    7.7661 C.3     1  UNL1        0.1316
     21 C          58.8862   87.3038    7.0215 C.3     1  UNL1        0.0270
     22 C          59.0337   90.0775    5.8786 C.3     1  UNL1        0.0862
     23 N          59.7429   89.7527    7.1597 N.3     1  UNL1       -0.2902
     24 H          59.4106   90.4186    7.8573 H       1  UNL1        0.1237
     25 C          63.2578   90.0711   13.4104 C.3     1  UNL1        0.1278
     26 C          64.2102   91.0462   12.7842 C.ar    1  UNL1        0.0320
     27 C          63.9122   91.6225   11.4319 C.ar    1  UNL1        0.1363
     28 C          64.8645   92.5977   10.8057 C.ar    1  UNL1        0.0366
     29 C          66.1149   92.9965   11.5319 C.ar    1  UNL1        0.0031
     30 C          66.4129   92.4202   12.8843 C.ar    1  UNL1        0.0004
     31 C          67.6633   92.8190   13.6106 C.ar    1  UNL1        0.0067
     32 C          67.9614   92.2427   14.9630 C.ar    1  UNL1        0.0346
     33 BR         69.2118   92.6415   15.6892 Br      1  UNL1       -0.0490
     34 C          67.0090   91.2675   15.5891 C.ar    1  UNL1        0.0067
     35 C          65.7586   90.8687   14.8629 C.ar    1  UNL1        0.0003
     36 C          65.4606   91.4450   13.5105 C.ar    1  UNL1        0.0006
     37 O          62.6618   91.2237   10.7056 O.3     1  UNL1       -0.4717
     38 C          62.6252   91.2478    9.2062 C.3     1  UNL1        0.2525
     39 C          63.6731   83.1954   13.3862 C.3     1  UNL1        0.2357
     40 S          63.2514   81.7889   13.6926 S.O2    1  UNL1        0.0007
     41 C          62.8298   80.3824   13.9989 C.3     1  UNL1        0.1766
     42 O          62.0414   82.3082   14.4111 O.2     1  UNL1       -0.1725
     43 O          64.4615   81.2697   12.9741 O.2     1  UNL1       -0.1725
@<TRIPOS>BOND
     1    22    23    1
     2    23    20    1
     3    20    21    1
     4    20    16    1
     5    16    17    2
     6    16    18   am
     7     1    18    1
     8     1     2    1
     9     2     3    2
    10     2     4   am
    11     4    25    1
    12    25    26    1
    13    26    27   ar
    14    27    37    1
    15    37    38    1
    16    27    28   ar
    17    28    29   ar
    18    29    30   ar
    19    30    31   ar
    20    31    32   ar
    21    32    33    1
    22    32    34   ar
    23    34    35   ar
    24    35    36   ar
    25     4     5    1
    26     5     6   ar
    27     6     7   ar
    28     7     8   ar
    29     8     9   ar
    30     9    10   ar
    31    10    11    1
    32    11    12   am
    33    12    13    2
    34    12    39    1
    35    39    40    1
    36    40    41    1
    37    40    42    2
    38    40    43    2
    39    11    14    1
    40    14    15    1
    41    14     1    1
    42    36    26   ar
    43    10     5   ar
    44    36    30   ar
    45    23    24    1
    46    18    19    1
@<TRIPOS>MOLECULE
*****
 43 46 0 0 0
SMALL
GASTEIGER

@<TRIPOS>ATOM
      1 C          63.3241   86.3842   12.4913 C.3     1  UNL1        0.1678
      2 C          63.0554   87.8231   12.8193 C.2     1  UNL1        0.2492
      3 O          63.3953   87.8916   13.5370 O.2     1  UNL1       -0.2727
      4 N          62.3337   88.8503   11.9984 N.am    1  UNL1       -0.2517
      5 C          61.7023   88.6926   10.6469 C.ar    1  UNL1        0.0679
      6 C          61.0810   89.9752   10.1791 C.ar    1  UNL1        0.0162
      7 C          60.3942   90.0337    8.8469 C.ar    1  UNL1        0.0014
      8 C          60.3288   88.8096    7.9825 C.ar    1  UNL1        0.0014
      9 C          60.9501   87.5270    8.4502 C.ar    1  UNL1        0.0162
     10 C          61.6369   87.4685    9.7824 C.ar    1  UNL1        0.0676
     11 N          62.1866   86.0999   10.0560 N.am    1  UNL1       -0.2556
     12 C          61.9546   85.0788    8.9819 C.2     1  UNL1        0.2535
     13 O          62.4638   83.6785    9.1557 O.2     1  UNL1       -0.2726
     14 C          62.9374   85.6173   11.2615 C.3     1  UNL1        0.1067
     15 C          63.3571   84.1775   11.2336 C.3     1  UNL1        0.0242
     16 C          63.3353   84.7976   14.5486 C.2     1  UNL1        0.2371
     17 O          61.8359   84.7596   14.5274 O.2     1  UNL1       -0.2737
     18 N          64.0794   85.6099   13.5305 N.am    1  UNL1       -0.2959
     19 H          65.0635   85.6348   13.5444 H       1  UNL1        0.1499
     20 C          64.0906   84.0233   15.5878 C.3     1  UNL1        0.1316
     21 C          64.4904   84.6854   16.8731 C.3     1  UNL1        0.0270
     22 C          63.9055   81.8764   14.1364 C.3     1  UNL1        0.0862
     23 N          64.4459   82.5870   15.3418 N.3     1  UNL1       -0.2902
     24 H          65.4630   82.5419   15.2788 H       1  UNL1        0.1237
     25 C          62.2294   90.2161   12.6099 C.3     1  UNL1        0.1278
     26 C          63.4280   90.8393   13.2621 C.ar    1  UNL1        0.0320
     27 C          63.6301   90.7066   14.7424 C.ar    1  UNL1        0.1363
     28 C          64.8286   91.3298   15.3946 C.ar    1  UNL1        0.0366
     29 C          65.8249   92.0857   14.5663 C.ar    1  UNL1        0.0031
     30 C          65.6227   92.2184   13.0860 C.ar    1  UNL1        0.0004
     31 C          66.6190   92.9743   12.2577 C.ar    1  UNL1        0.0067
     32 C          66.4169   93.1070   10.7773 C.ar    1  UNL1        0.0346
     33 BR         67.4132   93.8630    9.9491 Br      1  UNL1       -0.0490
     34 C          65.2184   92.4838   10.1253 C.ar    1  UNL1        0.0067
     35 C          64.2220   91.7279   10.9534 C.ar    1  UNL1        0.0003
     36 C          64.4243   91.5952   12.4338 C.ar    1  UNL1        0.0006
     37 O          62.6338   89.9507   15.5707 O.3     1  UNL1       -0.4717
     38 C          63.1000   89.1079   16.7207 C.3     1  UNL1        0.2525
     39 C          61.2136   85.4579    7.7340 C.3     1  UNL1        0.2357
     40 S          61.5263   84.7704    6.4380 S.O2    1  UNL1        0.0007
     41 C          61.8388   84.0829    5.1421 C.3     1  UNL1        0.1766
     42 O          62.9840   85.0646    6.6336 O.2     1  UNL1       -0.1725
     43 O          60.0684   84.4761    6.2425 O.2     1  UNL1       -0.1725
@<TRIPOS>BOND
     1    22    23    1
     2    23    20    1
     3    20    21    1
     4    20    16    1
     5    16    17    2
     6    16    18   am
     7     1    18    1
     8     1     2    1
     9     2     3    2
    10     2     4   am
    11     4    25    1
    12    25    26    1
    13    26    27   ar
    14    27    37    1
    15    37    38    1
    16    27    28   ar
    17    28    29   ar
    18    29    30   ar
    19    30    31   ar
    20    31    32   ar
    21    32    33    1
    22    32    34   ar
    23    34    35   ar
    24    35    36   ar
    25     4     5    1
    26     5     6   ar
    27     6     7   ar
    28     7     8   ar
    29     8     9   ar
    30     9    10   ar
    31    10    11    1
    32    11    12   am
    33    12    13    2
    34    12    39    1
    35    39    40    1
    36    40    41    1
    37    40    42    2
    38    40    43    2
    39    11    14    1
    40    14    15    1
    41    14     1    1
    42    36    26   ar
    43    10     5   ar
    44    36    30   ar
    45    23    24    1
    46    18    19    1
@<TRIPOS>MOLECULE
*****
 43 46 0 0 0
SMALL
GASTEIGER

@<TRIPOS>ATOM
      1 C          62.4557   88.5901   12.5519 C.3     1  UNL1        0.1678
      2 C          63.1605   87.2691   12.6423 C.2     1  UNL1        0.2492
      3 O          63.5249   87.3281   13.3488 O.2     1  UNL1       -0.2727
      4 N          63.1665   86.1427   11.6518 N.am    1  UNL1       -0.2517
      5 C          62.4693   86.0590   10.3263 C.ar    1  UNL1        0.0679
      6 C          62.7394   84.7493    9.6467 C.ar    1  UNL1        0.0162
      7 C          62.1340   84.4619    8.3048 C.ar    1  UNL1        0.0014
      8 C          61.2586   85.4840    7.6424 C.ar    1  UNL1        0.0014
      9 C          60.9885   86.7937    8.3220 C.ar    1  UNL1        0.0162
     10 C          61.5939   87.0812    9.6639 C.ar    1  UNL1        0.0676
     11 N          61.1994   88.4394   10.1635 N.am    1  UNL1       -0.2556
     12 C          60.3029   89.2308    9.2580 C.2     1  UNL1        0.2535
     13 O          59.8493   90.6020    9.6630 O.2     1  UNL1       -0.2726
     14 C          61.5829   89.1110   11.4487 C.3     1  UNL1        0.1067
     15 C          61.0192   90.4851   11.6585 C.3     1  UNL1        0.0242
     16 C          63.9151   90.3071   13.8450 C.2     1  UNL1        0.2371
     17 O          64.9873   90.1799   12.8038 O.2     1  UNL1       -0.2737
     18 N          62.6493   89.5122   13.7191 N.am    1  UNL1       -0.2959
     19 H          61.9455   89.5957   14.4024 H       1  UNL1        0.1499
     20 C          64.1086   91.2292   15.0121 C.3     1  UNL1        0.1316
     21 C          63.4007   90.9593   16.3068 C.3     1  UNL1        0.0270
     22 C          66.2643   92.5041   15.7035 C.3     1  UNL1        0.0862
     23 N          65.0102   92.4213   14.8847 N.3     1  UNL1       -0.2902
     24 H          65.2934   92.4730   13.9062 H       1  UNL1        0.1237
     25 C          63.9769   84.9409   12.0379 C.3     1  UNL1        0.1278
     26 C          63.3353   83.8146   12.7928 C.ar    1  UNL1        0.0320
     27 C          62.8412   84.0349   14.1918 C.ar    1  UNL1        0.1363
     28 C          62.1996   82.9087   14.9468 C.ar    1  UNL1        0.0366
     29 C          62.0522   81.5621   14.3026 C.ar    1  UNL1        0.0031
     30 C          62.5462   81.3418   12.9036 C.ar    1  UNL1        0.0004
     31 C          62.3988   79.9951   12.2595 C.ar    1  UNL1        0.0067
     32 C          62.8929   79.7747   10.8604 C.ar    1  UNL1        0.0346
     33 BR         62.7454   78.4281   10.2164 Br      1  UNL1       -0.0490
     34 C          63.5344   80.9010   10.1056 C.ar    1  UNL1        0.0067
     35 C          63.6819   82.2476   10.7496 C.ar    1  UNL1        0.0003
     36 C          63.1878   82.4680   12.1487 C.ar    1  UNL1        0.0006
     37 O          62.9887   85.3815   14.8359 O.3     1  UNL1       -0.4717
     38 C          63.8183   85.5328   16.0765 C.3     1  UNL1        0.2525
     39 C          59.8598   88.6509    7.9474 C.3     1  UNL1        0.2357
     40 S          59.2858   89.5442    6.8878 S.O2    1  UNL1        0.0007
     41 C          58.7120   90.4375    5.8283 C.3     1  UNL1        0.1766
     42 O          57.9664   88.8413    7.0100 O.2     1  UNL1       -0.1725
     43 O          60.6054   90.2471    6.7657 O.2     1  UNL1       -0.1725
@<TRIPOS>BOND
     1    22    23    1
     2    23    20    1
     3    20    21    1
     4    20    16    1
     5    16    17    2
     6    16    18   am
     7     1    18    1
     8     1     2    1
     9     2     3    2
    10     2     4   am
    11     4    25    1
    12    25    26    1
    13    26    27   ar
    14    27    37    1
    15    37    38    1
    16    27    28   ar
    17    28    29   ar
    18    29    30   ar
    19    30    31   ar
    20    31    32   ar
    21    32    33    1
    22    32    34   ar
    23    34    35   ar
    24    35    36   ar
    25     4     5    1
    26     5     6   ar
    27     6     7   ar
    28     7     8   ar
    29     8     9   ar
    30     9    10   ar
    31    10    11    1
    32    11    12   am
    33    12    13    2
    34    12    39    1
    35    39    40    1
    36    40    41    1
    37    40    42    2
    38    40    43    2
    39    11    14    1
    40    14    15    1
    41    14     1    1
    42    36    26   ar
    43    10     5   ar
    44    36    30   ar
    45    23    24    1
    46    18    19    1
@<TRIPOS>MOLECULE
*****
 43 46 0 0 0
SMALL
GASTEIGER

@<TRIPOS>ATOM
      1 C          63.2139   85.3925   12.5558 C.3     1  UNL1        0.1678
      2 C          64.0278   86.2417   13.4867 C.2     1  UNL1        0.2492
      3 O          64.3613   85.6917   13.9575 O.2     1  UNL1       -0.2727
      4 N          64.1660   87.7351   13.5104 N.am    1  UNL1       -0.2517
      5 C          63.5245   88.7483   12.6093 C.ar    1  UNL1        0.0679
      6 C          63.9310   90.1444   12.9774 C.ar    1  UNL1        0.0162
      7 C          63.3993   91.3104   12.1980 C.ar    1  UNL1        0.0014
      8 C          62.4610   91.0803   11.0505 C.ar    1  UNL1        0.0014
      9 C          62.0546   89.6842   10.6824 C.ar    1  UNL1        0.0162
     10 C          62.5863   88.5182   11.4618 C.ar    1  UNL1        0.0676
     11 N          62.0579   87.2181   10.9320 N.am    1  UNL1       -0.2556
     12 C          61.1271   87.3230    9.7604 C.2     1  UNL1        0.2535
     13 O          60.5419   86.0820    9.1540 O.2     1  UNL1       -0.2726
     14 C          62.3372   85.8270   11.4188 C.3     1  UNL1        0.1067
     15 C          61.6487   84.7249   10.6698 C.3     1  UNL1        0.0242
     16 C          62.5133   83.2960   13.9209 C.2     1  UNL1        0.2371
     17 O          61.6680   84.1580   14.8111 O.2     1  UNL1       -0.2737
     18 N          63.2862   83.9132   12.7933 N.am    1  UNL1       -0.2959
     19 H          63.8410   83.3474   12.2090 H       1  UNL1        0.1499
     20 C          62.5856   81.8167   14.1584 C.3     1  UNL1        0.1316
     21 C          63.7661   81.0345   13.6636 C.3     1  UNL1        0.0270
     22 C          60.3042   80.5740   14.1318 C.3     1  UNL1        0.0862
     23 N          61.4775   81.1195   14.8905 N.3     1  UNL1       -0.2902
     24 H          61.8999   80.3335   15.3846 H       1  UNL1        0.1237
     25 C          65.0647   88.2886   14.5763 C.3     1  UNL1        0.1278
     26 C          64.6809   89.5430   15.3039 C.ar    1  UNL1        0.0320
     27 C          63.3639   89.6231   16.0173 C.ar    1  UNL1        0.1363
     28 C          62.9801   90.8774   16.7449 C.ar    1  UNL1        0.0366
     29 C          63.9134   92.0516   16.7591 C.ar    1  UNL1        0.0031
     30 C          65.2304   91.9715   16.0457 C.ar    1  UNL1        0.0004
     31 C          66.1637   93.1457   16.0599 C.ar    1  UNL1        0.0067
     32 C          67.4809   93.0656   15.3465 C.ar    1  UNL1        0.0346
     33 BR         68.4141   94.2398   15.3608 Br      1  UNL1       -0.0490
     34 C          67.8645   91.8113   14.6190 C.ar    1  UNL1        0.0067
     35 C          66.9313   90.6370   14.6047 C.ar    1  UNL1        0.0003
     36 C          65.6142   90.7172   15.3181 C.ar    1  UNL1        0.0006
     37 O          62.4306   88.4489   16.0031 O.3     1  UNL1       -0.4717
     38 C          62.5802   87.3594   17.0233 C.3     1  UNL1        0.2525
     39 C          60.7814   88.6688    9.1952 C.3     1  UNL1        0.2357
     40 S          59.7753   88.7814    8.0884 S.O2    1  UNL1        0.0007
     41 C          58.7691   88.8939    6.9817 C.3     1  UNL1        0.1766
     42 O          60.5594   89.9117    7.4906 O.2     1  UNL1       -0.1725
     43 O          58.9911   87.6511    8.6863 O.2     1  UNL1       -0.1725
@<TRIPOS>BOND
     1    22    23    1
     2    23    20    1
     3    20    21    1
     4    20    16    1
     5    16    17    2
     6    16    18   am
     7     1    18    1
     8     1     2    1
     9     2     3    2
    10     2     4   am
    11     4    25    1
    12    25    26    1
    13    26    27   ar
    14    27    37    1
    15    37    38    1
    16    27    28   ar
    17    28    29   ar
    18    29    30   ar
    19    30    31   ar
    20    31    32   ar
    21    32    33    1
    22    32    34   ar
    23    34    35   ar
    24    35    36   ar
    25     4     5    1
    26     5     6   ar
    27     6     7   ar
    28     7     8   ar
    29     8     9   ar
    30     9    10   ar
    31    10    11    1
    32    11    12   am
    33    12    13    2
    34    12    39    1
    35    39    40    1
    36    40    41    1
    37    40    42    2
    38    40    43    2
    39    11    14    1
    40    14    15    1
    41    14     1    1
    42    36    26   ar
    43    10     5   ar
    44    36    30   ar
    45    23    24    1
    46    18    19    1
@<TRIPOS>MOLECULE
*****
 43 46 0 0 0
SMALL
GASTEIGER

@<TRIPOS>ATOM
      1 C          62.1659   87.6945   10.2721 C.3     1  UNL1        0.1678
      2 C          62.7177   88.9348   10.9103 C.2     1  UNL1        0.2492
      3 O          62.5189   89.4931   10.3773 O.2     1  UNL1       -0.2727
      4 N          63.4498   89.0700   12.2124 N.am    1  UNL1       -0.2517
      5 C          63.8111   87.9985   13.1980 C.ar    1  UNL1        0.0679
      6 C          64.5466   88.5636   14.3768 C.ar    1  UNL1        0.0162
      7 C          65.0005   87.6572   15.4824 C.ar    1  UNL1        0.0014
      8 C          64.7188   86.1857   15.4093 C.ar    1  UNL1        0.0014
      9 C          63.9832   85.6206   14.2305 C.ar    1  UNL1        0.0162
     10 C          63.5294   86.5270   13.1248 C.ar    1  UNL1        0.0676
     11 N          62.8169   85.7637   12.0480 N.am    1  UNL1       -0.2556
     12 C          62.6950   84.2852   12.2701 C.2     1  UNL1        0.2535
     13 O          62.0000   83.4288   11.2535 O.2     1  UNL1       -0.2726
     14 C          62.2101   86.2832   10.7784 C.3     1  UNL1        0.1067
     15 C          61.5617   85.2556    9.8988 C.3     1  UNL1        0.0242
     16 C          60.1461   88.5766    8.8966 C.2     1  UNL1        0.2371
     17 O          59.4995   89.0647   10.1591 O.2     1  UNL1       -0.2737
     18 N          61.4792   87.8915    8.9531 N.am    1  UNL1       -0.2959
     19 H          61.9036   87.5712    8.1245 H       1  UNL1        0.1499
     20 C          59.4594   88.7737    7.5777 C.3     1  UNL1        0.1316
     21 C          58.5779   87.6944    7.0224 C.3     1  UNL1        0.0270
     22 C          58.6889   90.4304    5.7306 C.3     1  UNL1        0.0862
     23 N          59.6540   90.0500    6.8141 N.3     1  UNL1       -0.2902
     24 H          59.6425   90.8068    7.4978 H       1  UNL1        0.1237
     25 C          63.8773   90.4608   12.5773 C.3     1  UNL1        0.1278
     26 C          64.0607   90.8353   14.0182 C.ar    1  UNL1        0.0320
     27 C          63.0007   90.4933   15.0228 C.ar    1  UNL1        0.1363
     28 C          63.1840   90.8678   16.4636 C.ar    1  UNL1        0.0366
     29 C          64.4274   91.5844   16.8999 C.ar    1  UNL1        0.0031
     30 C          65.4875   91.9264   15.8953 C.ar    1  UNL1        0.0004
     31 C          66.7309   92.6430   16.3316 C.ar    1  UNL1        0.0067
     32 C          67.7911   92.9851   15.3269 C.ar    1  UNL1        0.0346
     33 BR         69.0345   93.7017   15.7633 Br      1  UNL1       -0.0490
     34 C          67.6076   92.6106   13.8861 C.ar    1  UNL1        0.0067
     35 C          66.3642   91.8940   13.4498 C.ar    1  UNL1        0.0003
     36 C          65.3041   91.5519   14.4545 C.ar    1  UNL1        0.0006
     37 O          61.7572   89.7767   14.5865 O.3     1  UNL1       -0.4717
     38 C          60.8360   89.1818   15.6102 C.3     1  UNL1        0.2525
     39 C          63.2682   83.6631   13.5089 C.3     1  UNL1        0.2357
     40 S          63.2514   82.1726   13.6763 S.O2    1  UNL1        0.0007
     41 C          63.2347   80.6821   13.8436 C.3     1  UNL1        0.1766
     42 O          62.0442   82.2854   14.5595 O.2     1  UNL1       -0.1725
     43 O          64.4586   82.0599   12.7931 O.2     1  UNL1       -0.1725
@<TRIPOS>BOND
     1    22    23    1
     2    23    20    1
     3    20    21    1
     4    20    16    1
     5    16    17    2
     6    16    18   am
     7     1    18    1
     8     1     2    1
     9     2     3    2
    10     2     4   am
    11     4    25    1
    12    25    26    1
    13    26    27   ar
    14    27    37    1
    15    37    38    1
    16    27    28   ar
    17    28    29   ar
    18    29    30   ar
    19    30    31   ar
    20    31    32   ar
    21    32    33    1
    22    32    34   ar
    23    34    35   ar
    24    35    36   ar
    25     4     5    1
    26     5     6   ar
    27     6     7   ar
    28     7     8   ar
    29     8     9   ar
    30     9    10   ar
    31    10    11    1
    32    11    12   am
    33    12    13    2
    34    12    39    1
    35    39    40    1
    36    40    41    1
    37    40    42    2
    38    40    43    2
    39    11    14    1
    40    14    15    1
    41    14     1    1
    42    36    26   ar
    43    10     5   ar
    44    36    30   ar
    45    23    24    1
    46    18    19    1
@<TRIPOS>MOLECULE
*****
 43 46 0 0 0
SMALL
GASTEIGER

@<TRIPOS>ATOM
      1 C          63.0153   90.0401   14.8292 C.3     1  UNL1        0.1678
      2 C          62.5444   89.8885   13.4131 C.2     1  UNL1        0.2492
      3 O          61.9507   89.3631   13.4953 O.2     1  UNL1       -0.2727
      4 N          63.0668   90.5589   12.1771 N.am    1  UNL1       -0.2517
      5 C          64.1889   91.5464   12.0518 C.ar    1  UNL1        0.0679
      6 C          64.3877   91.9722   10.6273 C.ar    1  UNL1        0.0162
      7 C          65.4635   92.9591   10.2828 C.ar    1  UNL1        0.0014
      8 C          66.3405   93.5201   11.3627 C.ar    1  UNL1        0.0014
      9 C          66.1417   93.0943   12.7871 C.ar    1  UNL1        0.0162
     10 C          65.0659   92.1074   13.1317 C.ar    1  UNL1        0.0676
     11 N          65.0373   91.8195   14.6035 N.am    1  UNL1       -0.2556
     12 C          66.0560   92.5479   15.4291 C.2     1  UNL1        0.2535
     13 O          66.1130   92.3316   16.9123 O.2     1  UNL1       -0.2726
     14 C          64.1247   90.8995   15.3590 C.3     1  UNL1        0.1067
     15 C          64.3515   90.8296   16.8401 C.3     1  UNL1        0.0242
     16 C          62.8901   87.9628   16.3845 C.2     1  UNL1        0.2371
     17 O          64.2368   87.5167   15.8971 O.2     1  UNL1       -0.2737
     18 N          62.2794   89.2245   15.8505 N.am    1  UNL1       -0.2959
     19 H          61.3955   89.5172   16.1704 H       1  UNL1        0.1499
     20 C          62.1542   87.1471   17.4058 C.3     1  UNL1        0.1316
     21 C          62.5348   87.2378   18.8540 C.3     1  UNL1        0.0270
     22 C          61.2751   85.2058   15.9198 C.3     1  UNL1        0.0862
     23 N          61.0377   86.2409   16.9792 N.3     1  UNL1       -0.2902
     24 H          60.7277   85.7426   17.8134 H       1  UNL1        0.1237
     25 C          62.3756   90.1934   10.8969 C.3     1  UNL1        0.1278
     26 C          61.9203   88.7828   10.6666 C.ar    1  UNL1        0.0320
     27 C          60.8655   88.4933    9.6403 C.ar    1  UNL1        0.1363
     28 C          60.4103   87.0827    9.4099 C.ar    1  UNL1        0.0366
     29 C          61.0099   85.9617   10.2060 C.ar    1  UNL1        0.0031
     30 C          62.0647   86.2512   11.2323 C.ar    1  UNL1        0.0004
     31 C          62.6643   85.1302   12.0284 C.ar    1  UNL1        0.0067
     32 C          63.7192   85.4196   13.0548 C.ar    1  UNL1        0.0346
     33 BR         64.3188   84.2986   13.8508 Br      1  UNL1       -0.0490
     34 C          64.1744   86.8302   13.2851 C.ar    1  UNL1        0.0067
     35 C          63.5748   87.9513   12.4891 C.ar    1  UNL1        0.0003
     36 C          62.5200   87.6617   11.4627 C.ar    1  UNL1        0.0006
     37 O          60.2659   89.6143    8.8442 O.3     1  UNL1       -0.4717
     38 C          59.6458   89.3366    7.5068 C.3     1  UNL1        0.2525
     39 C          67.0178   93.4928   14.7714 C.3     1  UNL1        0.2357
     40 S          68.4550   93.5187   15.1999 S.O2    1  UNL1        0.0007
     41 C          69.8922   93.5446   15.6283 C.3     1  UNL1        0.1766
     42 O          68.1426   94.6090   16.1816 O.2     1  UNL1       -0.1725
     43 O          68.7673   92.4284   14.2182 O.2     1  UNL1       -0.1725
@<TRIPOS>BOND
     1    22    23    1
     2    23    20    1
     3    20    21    1
     4    20    16    1
     5    16    17    2
     6    16    18   am
     7     1    18    1
     8     1     2    1
     9     2     3    2
    10     2     4   am
    11     4    25    1
    12    25    26    1
    13    26    27   ar
    14    27    37    1
    15    37    38    1
    16    27    28   ar
    17    28    29   ar
    18    29    30   ar
    19    30    31   ar
    20    31    32   ar
    21    32    33    1
    22    32    34   ar
    23    34    35   ar
    24    35    36   ar
    25     4     5    1
    26     5     6   ar
    27     6     7   ar
    28     7     8   ar
    29     8     9   ar
    30     9    10   ar
    31    10    11    1
    32    11    12   am
    33    12    13    2
    34    12    39    1
    35    39    40    1
    36    40    41    1
    37    40    42    2
    38    40    43    2
    39    11    14    1
    40    14    15    1
    41    14     1    1
    42    36    26   ar
    43    10     5   ar
    44    36    30   ar
    45    23    24    1
    46    18    19    1
