@<TRIPOS>MOLECULE
*****
 29 33 0 0 0
SMALL
GASTEIGER

@<TRIPOS>ATOM
      1 C          63.9831   90.4995   12.7145 C.ar    1  UNL1        0.0515
      2 C          64.6149   89.7085   13.8214 C.ar    1  UNL1        0.0160
      3 C          64.3371   88.2398   13.9469 C.ar    1  UNL1        0.0174
      4 C          63.4274   87.5621   12.9655 C.ar    1  UNL1        0.0712
      5 C          62.7955   88.3531   11.8586 C.ar    1  UNL1        0.0729
      6 CL         61.8858   87.6753   10.8773 Cl      1  UNL1       -0.0809
      7 C          63.0734   89.8217   11.7331 C.ar    1  UNL1        0.0273
      8 N          63.1495   86.0934   13.0909 N.am    1  UNL1       -0.2073
      9 C          62.9697   85.3365   14.3734 C.2     1  UNL1        0.2355
     10 O          63.0363   85.9155   15.7557 O.2     1  UNL1       -0.2741
     11 C          62.7117   83.8991   14.0312 C.3     1  UNL1        0.0903
     12 C          62.7320   83.7676   12.5370 C.3     1  UNL1        0.0903
     13 C          63.0026   85.1238   11.9560 C.2     1  UNL1        0.2355
     14 O          63.1078   85.4525   10.4962 O.2     1  UNL1       -0.2741
     15 C          62.4739   82.3301   12.1948 C.3     1  UNL1        0.0311
     16 C          62.2033   80.9740   12.7758 C.2     1  UNL1       -0.0305
     17 C          62.1830   81.1055   14.2699 C.2     1  UNL1       -0.0305
     18 C          62.4411   82.5430   14.6122 C.3     1  UNL1        0.0311
     19 C          62.6209   83.2998   13.3297 C.3     1  UNL1        0.0096
     20 O          66.1713   91.4626   10.9022 O.2     1  UNL1       -0.2682
     21 C          65.3550   92.4498   11.6829 C.2     1  UNL1        0.2672
     22 N          64.2609   91.9682   12.5890 N.am    1  UNL1       -0.2791
     23 H          63.7252   92.6161   13.1014 H       1  UNL1        0.1552
     24 C          65.6329   93.9184   11.5574 C.ar    1  UNL1        0.1348
     25 C          65.3418   94.6294   10.2691 C.ar    1  UNL1        0.0238
     26 C          65.6197   96.0981   10.1436 C.ar    1  UNL1        0.0033
     27 C          66.1887   96.8558   11.3064 C.ar    1  UNL1        0.0207
     28 C          66.4798   96.1447   12.5948 C.ar    1  UNL1        0.0990
     29 N          66.2019   94.6761   12.7203 N.ar    1  UNL1       -0.2392
@<TRIPOS>BOND
     1    20    21    2
     2    21    22   am
     3    22     1    1
     4     1     2   ar
     5     2     3   ar
     6     3     4   ar
     7     4     8    1
     8     8     9   am
     9     9    10    2
    10    11     9    1
    11    11    12    1
    12    12    13    1
    13    13    14    2
    14    12    15    1
    15    15    16    1
    16    16    17    2
    17    18    17    1
    18    18    19    1
    19     4     5   ar
    20     5     6    1
    21     5     7   ar
    22    21    24    1
    23    24    25   ar
    24    25    26   ar
    25    26    27   ar
    26    27    28   ar
    27    28    29   ar
    28     7     1   ar
    29    29    24   ar
    30    13     8   am
    31    19    15    1
    32    18    11    1
    33    22    23    1
@<TRIPOS>MOLECULE
*****
 29 33 0 0 0
SMALL
GASTEIGER

@<TRIPOS>ATOM
      1 C          63.9943   90.4925   12.7206 C.ar    1  UNL1        0.0515
      2 C          64.6205   89.7003   13.8297 C.ar    1  UNL1        0.0160
      3 C          64.3445   88.2308   13.9503 C.ar    1  UNL1        0.0174
      4 C          63.4421   87.5537   12.9618 C.ar    1  UNL1        0.0712
      5 C          62.8158   88.3459   11.8527 C.ar    1  UNL1        0.0729
      6 CL         61.9135   87.6687   10.8642 Cl      1  UNL1       -0.0809
      7 C          63.0919   89.8153   11.7321 C.ar    1  UNL1        0.0273
      8 N          63.1660   86.0842   13.0824 N.am    1  UNL1       -0.2073
      9 C          63.0144   85.1194   11.9439 C.2     1  UNL1        0.2355
     10 O          63.1124   85.4547   10.4850 O.2     1  UNL1       -0.2741
     11 C          62.7477   83.7605   12.5202 C.3     1  UNL1        0.0903
     12 C          62.7344   83.8855   14.0150 C.3     1  UNL1        0.0903
     13 C          62.9930   85.3217   14.3623 C.2     1  UNL1        0.2355
     14 O          63.0657   85.8946   15.7467 O.2     1  UNL1       -0.2741
     15 C          62.4677   82.5266   14.5914 C.3     1  UNL1        0.0311
     16 C          62.2092   81.0904   14.2440 C.2     1  UNL1       -0.0305
     17 C          62.2224   80.9655   12.7493 C.2     1  UNL1       -0.0305
     18 C          62.4892   82.3244   12.1728 C.3     1  UNL1        0.0311
     19 C          62.6407   83.2892   13.3113 C.3     1  UNL1        0.0096
     20 O          66.1992   91.4626   10.9325 O.2     1  UNL1       -0.2682
     21 C          65.3728   92.4470   11.7060 C.2     1  UNL1        0.2672
     22 N          64.2704   91.9620   12.6000 N.am    1  UNL1       -0.2791
     23 H          63.7280   92.6081   13.1076 H       1  UNL1        0.1552
     24 C          65.6489   93.9165   11.5854 C.ar    1  UNL1        0.1348
     25 C          65.3572   94.6313   10.2993 C.ar    1  UNL1        0.0238
     26 C          65.6334   96.1007   10.1787 C.ar    1  UNL1        0.0033
     27 C          66.2012   96.8553   11.3441 C.ar    1  UNL1        0.0207
     28 C          66.4928   96.1404   12.6302 C.ar    1  UNL1        0.0990
     29 N          66.2167   94.6710   12.7508 N.ar    1  UNL1       -0.2392
@<TRIPOS>BOND
     1    20    21    2
     2    21    22   am
     3    22     1    1
     4     1     2   ar
     5     2     3   ar
     6     3     4   ar
     7     4     8    1
     8     8     9   am
     9     9    10    2
    10    11     9    1
    11    11    12    1
    12    12    13    1
    13    13    14    2
    14    12    15    1
    15    15    16    1
    16    16    17    2
    17    18    17    1
    18    18    19    1
    19     4     5   ar
    20     5     6    1
    21     5     7   ar
    22    21    24    1
    23    24    25   ar
    24    25    26   ar
    25    26    27   ar
    26    27    28   ar
    27    28    29   ar
    28     7     1   ar
    29    29    24   ar
    30    13     8   am
    31    19    15    1
    32    18    11    1
    33    22    23    1
@<TRIPOS>MOLECULE
*****
 29 33 0 0 0
SMALL
GASTEIGER

@<TRIPOS>ATOM
      1 C          63.8864   94.4260   -1.6091 C.ar    1  UNL1        0.0515
      2 C          62.6598   93.5992   -1.8580 C.ar    1  UNL1        0.0160
      3 C          61.8760   93.0532   -0.7015 C.ar    1  UNL1        0.0174
      4 C          62.3189   93.3338    0.7039 C.ar    1  UNL1        0.0712
      5 C          63.5455   94.1606    0.9528 C.ar    1  UNL1        0.0729
      6 CL         63.9884   94.4412    2.3581 Cl      1  UNL1       -0.0809
      7 C          64.3293   94.7066   -0.2037 C.ar    1  UNL1        0.0273
      8 N          61.5352   92.7878    1.8605 N.am    1  UNL1       -0.2073
      9 C          62.0652   91.8906    2.9394 C.2     1  UNL1        0.2355
     10 O          63.4719   91.3818    3.0511 O.2     1  UNL1       -0.2741
     11 C          60.9416   91.5913    3.8870 C.3     1  UNL1        0.0903
     12 C          59.7172   92.3037    3.3937 C.3     1  UNL1        0.0903
     13 C          60.0841   93.0432    2.1413 C.2     1  UNL1        0.2355
     14 O          59.1616   93.8894    1.3148 O.2     1  UNL1       -0.2741
     15 C          58.5935   92.0045    4.3414 C.3     1  UNL1        0.0311
     16 C          58.2266   91.2651    5.5938 C.2     1  UNL1       -0.0305
     17 C          59.4511   90.5527    6.0870 C.2     1  UNL1       -0.0305
     18 C          60.5747   90.8519    5.1394 C.3     1  UNL1        0.0311
     19 C          60.0447   91.7492    4.0605 C.3     1  UNL1        0.0096
     20 O          63.8218   93.0236   -4.2604 O.2     1  UNL1       -0.2682
     21 C          64.6379   94.2709   -4.0913 C.2     1  UNL1        0.2672
     22 N          64.6702   94.9720   -2.7657 N.am    1  UNL1       -0.2791
     23 H          65.2058   95.7906   -2.6547 H       1  UNL1        0.1552
     24 C          65.4216   94.8169   -5.2478 C.ar    1  UNL1        0.1348
     25 C          65.7463   96.2800   -5.3099 C.ar    1  UNL1        0.0238
     26 C          66.5300   96.8260   -6.4664 C.ar    1  UNL1        0.0033
     27 C          66.9891   95.9088   -7.5610 C.ar    1  UNL1        0.0207
     28 C          66.6645   94.4457   -7.4989 C.ar    1  UNL1        0.0990
     29 N          65.8807   93.8997   -6.3424 N.ar    1  UNL1       -0.2392
@<TRIPOS>BOND
     1    20    21    2
     2    21    22   am
     3    22     1    1
     4     1     2   ar
     5     2     3   ar
     6     3     4   ar
     7     4     8    1
     8     8     9   am
     9     9    10    2
    10    11     9    1
    11    11    12    1
    12    12    13    1
    13    13    14    2
    14    12    15    1
    15    15    16    1
    16    16    17    2
    17    18    17    1
    18    18    19    1
    19     4     5   ar
    20     5     6    1
    21     5     7   ar
    22    21    24    1
    23    24    25   ar
    24    25    26   ar
    25    26    27   ar
    26    27    28   ar
    27    28    29   ar
    28     7     1   ar
    29    29    24   ar
    30    13     8   am
    31    19    15    1
    32    18    11    1
    33    22    23    1
@<TRIPOS>MOLECULE
*****
 29 33 0 0 0
SMALL
GASTEIGER

@<TRIPOS>ATOM
      1 C          60.9461   91.4904    4.4065 C.ar    1  UNL1        0.0515
      2 C          59.6934   92.1820    3.9565 C.ar    1  UNL1        0.0160
      3 C          59.6752   92.9298    2.6563 C.ar    1  UNL1        0.0174
      4 C          60.9097   92.9859    1.8061 C.ar    1  UNL1        0.0712
      5 C          62.1624   92.2943    2.2561 C.ar    1  UNL1        0.0729
      6 CL         63.3969   92.3504    1.4059 Cl      1  UNL1       -0.0809
      7 C          62.1806   91.5465    3.5563 C.ar    1  UNL1        0.0273
      8 N          60.8917   93.7337    0.5059 N.am    1  UNL1       -0.2073
      9 C          60.1411   93.3350   -0.7300 C.2     1  UNL1        0.2355
     10 O          59.2767   92.1185   -0.8827 O.2     1  UNL1       -0.2741
     11 C          60.4064   94.3661   -1.7865 C.3     1  UNL1        0.0903
     12 C          61.3211   95.4022   -1.2034 C.3     1  UNL1        0.0903
     13 C          61.6210   95.0113    0.2134 C.2     1  UNL1        0.2355
     14 O          62.4965   95.7657    1.1696 O.2     1  UNL1       -0.2741
     15 C          61.5866   96.4335   -2.2599 C.3     1  UNL1        0.0311
     16 C          61.2867   96.8244   -3.6767 C.2     1  UNL1       -0.0305
     17 C          60.3720   95.7883   -4.2597 C.2     1  UNL1       -0.0305
     18 C          60.1066   94.7571   -3.2033 C.3     1  UNL1        0.0311
     19 C          60.8572   95.1558   -1.9673 C.3     1  UNL1        0.0096
     20 O          58.5109   89.9867    5.3061 O.2     1  UNL1       -0.2682
     21 C          59.7467   89.9908    6.1565 C.2     1  UNL1        0.2672
     22 N          60.9642   90.7426    5.7068 N.am    1  UNL1       -0.2791
     23 H          61.7752   90.7452    6.2649 H       1  UNL1        0.1552
     24 C          59.7647   89.2430    7.4567 C.ar    1  UNL1        0.1348
     25 C          59.3884   87.7914    7.4924 C.ar    1  UNL1        0.0238
     26 C          59.4065   87.0436    8.7925 C.ar    1  UNL1        0.0033
     27 C          59.8009   87.7474   10.0571 C.ar    1  UNL1        0.0207
     28 C          60.1772   89.1990   10.0214 C.ar    1  UNL1        0.0990
     29 N          60.1591   89.9468    8.7212 N.ar    1  UNL1       -0.2392
@<TRIPOS>BOND
     1    20    21    2
     2    21    22   am
     3    22     1    1
     4     1     2   ar
     5     2     3   ar
     6     3     4   ar
     7     4     8    1
     8     8     9   am
     9     9    10    2
    10    11     9    1
    11    11    12    1
    12    12    13    1
    13    13    14    2
    14    12    15    1
    15    15    16    1
    16    16    17    2
    17    18    17    1
    18    18    19    1
    19     4     5   ar
    20     5     6    1
    21     5     7   ar
    22    21    24    1
    23    24    25   ar
    24    25    26   ar
    25    26    27   ar
    26    27    28   ar
    27    28    29   ar
    28     7     1   ar
    29    29    24   ar
    30    13     8   am
    31    19    15    1
    32    18    11    1
    33    22    23    1
@<TRIPOS>MOLECULE
*****
 29 33 0 0 0
SMALL
GASTEIGER

@<TRIPOS>ATOM
      1 C          62.9400   90.8631   10.9524 C.ar    1  UNL1        0.0515
      2 C          64.1043   91.6308   10.4000 C.ar    1  UNL1        0.0160
      3 C          65.1893   92.1110   11.3177 C.ar    1  UNL1        0.0174
      4 C          65.1100   91.8235   12.7877 C.ar    1  UNL1        0.0712
      5 C          63.9457   91.0558   13.3401 C.ar    1  UNL1        0.0729
      6 CL         63.8664   90.7683   14.8101 Cl      1  UNL1       -0.0809
      7 C          62.8607   90.5756   12.4224 C.ar    1  UNL1        0.0273
      8 N          66.1950   92.3036   13.7055 N.am    1  UNL1       -0.2073
      9 C          66.6599   93.7219   13.8549 C.2     1  UNL1        0.2355
     10 O          66.1214   94.9090   13.1127 O.2     1  UNL1       -0.2741
     11 C          67.7577   93.7448   14.8767 C.3     1  UNL1        0.0903
     12 C          67.9713   92.3405   15.3589 C.3     1  UNL1        0.0903
     13 C          67.0055   91.4499   14.6350 C.2     1  UNL1        0.2355
     14 O          66.8735   89.9659   14.8101 O.2     1  UNL1       -0.2741
     15 C          69.0692   92.3633   16.3808 C.3     1  UNL1        0.0311
     16 C          70.0351   93.2539   17.1046 C.2     1  UNL1       -0.0305
     17 C          69.8214   94.6581   16.6224 C.2     1  UNL1       -0.0305
     18 C          68.7235   94.6354   15.6006 C.3     1  UNL1        0.0311
     19 C          68.2587   93.2171   15.4512 C.3     1  UNL1        0.0096
     20 O          62.5609   87.9238   10.4868 O.2     1  UNL1       -0.2682
     21 C          61.6654   88.9134    9.8018 C.2     1  UNL1        0.2672
     22 N          61.8550   90.3830   10.0346 N.am    1  UNL1       -0.2791
     23 H          61.2673   91.0324    9.5850 H       1  UNL1        0.1552
     24 C          60.5804   88.4332    8.8841 C.ar    1  UNL1        0.1348
     25 C          60.1496   86.9968    8.9191 C.ar    1  UNL1        0.0238
     26 C          59.0646   86.5166    8.0014 C.ar    1  UNL1        0.0033
     27 C          58.4105   87.4728    7.0486 C.ar    1  UNL1        0.0207
     28 C          58.8413   88.9092    7.0136 C.ar    1  UNL1        0.0990
     29 N          59.9263   89.3894    7.9313 N.ar    1  UNL1       -0.2392
@<TRIPOS>BOND
     1    20    21    2
     2    21    22   am
     3    22     1    1
     4     1     2   ar
     5     2     3   ar
     6     3     4   ar
     7     4     8    1
     8     8     9   am
     9     9    10    2
    10    11     9    1
    11    11    12    1
    12    12    13    1
    13    13    14    2
    14    12    15    1
    15    15    16    1
    16    16    17    2
    17    18    17    1
    18    18    19    1
    19     4     5   ar
    20     5     6    1
    21     5     7   ar
    22    21    24    1
    23    24    25   ar
    24    25    26   ar
    25    26    27   ar
    26    27    28   ar
    27    28    29   ar
    28     7     1   ar
    29    29    24   ar
    30    13     8   am
    31    19    15    1
    32    18    11    1
    33    22    23    1
@<TRIPOS>MOLECULE
*****
 29 33 0 0 0
SMALL
GASTEIGER

@<TRIPOS>ATOM
      1 C          62.9505   90.8605   10.9548 C.ar    1  UNL1        0.0515
      2 C          62.8669   90.5843   12.4268 C.ar    1  UNL1        0.0160
      3 C          63.9504   91.0694   13.3437 C.ar    1  UNL1        0.0174
      4 C          65.1175   91.8308   12.7885 C.ar    1  UNL1        0.0712
      5 C          65.2011   92.1071   11.3165 C.ar    1  UNL1        0.0729
      6 CL         66.3681   92.8684   10.7614 Cl      1  UNL1       -0.0809
      7 C          64.1176   91.6219   10.3997 C.ar    1  UNL1        0.0273
      8 N          66.2011   92.3161   13.7053 N.am    1  UNL1       -0.2073
      9 C          67.0188   91.4655   14.6315 C.2     1  UNL1        0.2355
     10 O          66.8965   89.9803   14.8034 O.2     1  UNL1       -0.2741
     11 C          67.9803   92.3606   15.3555 C.3     1  UNL1        0.0903
     12 C          67.7567   93.7645   14.8767 C.3     1  UNL1        0.0903
     13 C          66.6571   93.7369   13.8569 C.2     1  UNL1        0.2355
     14 O          66.1098   94.9222   13.1183 O.2     1  UNL1       -0.2741
     15 C          68.7183   94.6597   15.6007 C.3     1  UNL1        0.0311
     16 C          69.8179   94.6873   16.6206 C.2     1  UNL1       -0.0305
     17 C          70.0414   93.2834   17.0993 C.2     1  UNL1       -0.0305
     18 C          69.0799   92.3882   16.3753 C.3     1  UNL1        0.0311
     19 C          68.2622   93.2388   15.4491 C.3     1  UNL1        0.0096
     20 O          62.5679   87.9184   10.5099 O.2     1  UNL1       -0.2682
     21 C          61.6757   88.9043    9.8155 C.2     1  UNL1        0.2672
     22 N          61.8669   90.3753   10.0380 N.am    1  UNL1       -0.2791
     23 H          61.2813   91.0223    9.5823 H       1  UNL1        0.1552
     24 C          60.5921   88.4191    8.8987 C.ar    1  UNL1        0.1348
     25 C          60.1742   86.9787    8.9279 C.ar    1  UNL1        0.0238
     26 C          59.0907   86.4935    8.0111 C.ar    1  UNL1        0.0033
     27 C          58.4251   87.4486    7.0651 C.ar    1  UNL1        0.0207
     28 C          58.8431   88.8889    7.0360 C.ar    1  UNL1        0.0990
     29 N          59.9266   89.3741    7.9528 N.ar    1  UNL1       -0.2392
@<TRIPOS>BOND
     1    20    21    2
     2    21    22   am
     3    22     1    1
     4     1     2   ar
     5     2     3   ar
     6     3     4   ar
     7     4     8    1
     8     8     9   am
     9     9    10    2
    10    11     9    1
    11    11    12    1
    12    12    13    1
    13    13    14    2
    14    12    15    1
    15    15    16    1
    16    16    17    2
    17    18    17    1
    18    18    19    1
    19     4     5   ar
    20     5     6    1
    21     5     7   ar
    22    21    24    1
    23    24    25   ar
    24    25    26   ar
    25    26    27   ar
    26    27    28   ar
    27    28    29   ar
    28     7     1   ar
    29    29    24   ar
    30    13     8   am
    31    19    15    1
    32    18    11    1
    33    22    23    1
@<TRIPOS>MOLECULE
*****
 29 33 0 0 0
SMALL
GASTEIGER

@<TRIPOS>ATOM
      1 C          61.4397   91.3827    4.1848 C.ar    1  UNL1        0.0515
      2 C          62.6631   91.2057    3.3352 C.ar    1  UNL1        0.0160
      3 C          62.8154   91.9915    2.0665 C.ar    1  UNL1        0.0174
      4 C          61.7442   92.9542    1.6475 C.ar    1  UNL1        0.0712
      5 C          60.5207   93.1312    2.4972 C.ar    1  UNL1        0.0729
      6 CL         59.4495   94.0940    2.0782 Cl      1  UNL1       -0.0809
      7 C          60.3685   92.3455    3.7658 C.ar    1  UNL1        0.0273
      8 N          61.8963   93.7400    0.3789 N.am    1  UNL1       -0.2073
      9 C          62.8588   94.8676    0.1503 C.2     1  UNL1        0.2355
     10 O          63.8381   95.4072    1.1503 O.2     1  UNL1       -0.2741
     11 C          62.6701   95.3608   -1.2536 C.3     1  UNL1        0.0903
     12 C          61.5909   94.5380   -1.8927 C.3     1  UNL1        0.0903
     13 C          61.1127   93.5363   -0.8837 C.2     1  UNL1        0.2355
     14 O          60.0393   92.5110   -1.0997 O.2     1  UNL1       -0.2741
     15 C          61.4022   95.0312   -3.2967 C.3     1  UNL1        0.0311
     16 C          61.8804   96.0328   -4.3057 C.2     1  UNL1       -0.0305
     17 C          62.9596   96.8555   -3.6666 C.2     1  UNL1       -0.0305
     18 C          63.1483   96.3624   -2.2626 C.3     1  UNL1        0.0311
     19 C          62.1858   95.2349   -2.0340 C.3     1  UNL1        0.0096
     20 O          58.7174   90.5001    5.0851 O.2     1  UNL1       -0.2682
     21 C          59.9264   90.1557    5.9036 C.2     1  UNL1        0.2672
     22 N          61.2875   90.5969    5.4535 N.am    1  UNL1       -0.2791
     23 H          62.0809   90.3709    5.9907 H       1  UNL1        0.1552
     24 C          59.7742   89.3699    7.1722 C.ar    1  UNL1        0.1348
     25 C          59.1457   88.0083    7.1402 C.ar    1  UNL1        0.0238
     26 C          58.9934   87.2225    8.4088 C.ar    1  UNL1        0.0033
     27 C          59.4697   87.7984    9.7094 C.ar    1  UNL1        0.0207
     28 C          60.0983   89.1600    9.7414 C.ar    1  UNL1        0.0990
     29 N          60.2505   89.9457    8.4728 N.ar    1  UNL1       -0.2392
@<TRIPOS>BOND
     1    20    21    2
     2    21    22   am
     3    22     1    1
     4     1     2   ar
     5     2     3   ar
     6     3     4   ar
     7     4     8    1
     8     8     9   am
     9     9    10    2
    10    11     9    1
    11    11    12    1
    12    12    13    1
    13    13    14    2
    14    12    15    1
    15    15    16    1
    16    16    17    2
    17    18    17    1
    18    18    19    1
    19     4     5   ar
    20     5     6    1
    21     5     7   ar
    22    21    24    1
    23    24    25   ar
    24    25    26   ar
    25    26    27   ar
    26    27    28   ar
    27    28    29   ar
    28     7     1   ar
    29    29    24   ar
    30    13     8   am
    31    19    15    1
    32    18    11    1
    33    22    23    1
@<TRIPOS>MOLECULE
*****
 29 33 0 0 0
SMALL
GASTEIGER

@<TRIPOS>ATOM
      1 C          64.7683   90.8398   13.5109 C.ar    1  UNL1        0.0515
      2 C          64.1857   89.5028   13.8617 C.ar    1  UNL1        0.0160
      3 C          63.2547   88.8164   12.9066 C.ar    1  UNL1        0.0174
      4 C          62.9064   89.4670   11.6007 C.ar    1  UNL1        0.0712
      5 C          63.4891   90.8040   11.2499 C.ar    1  UNL1        0.0729
      6 CL         63.1408   91.4546    9.9440 Cl      1  UNL1       -0.0809
      7 C          64.4200   91.4904   12.2050 C.ar    1  UNL1        0.0273
      8 N          61.9755   88.7807   10.6455 N.am    1  UNL1       -0.2073
      9 C          60.7318   89.3705   10.0495 C.2     1  UNL1        0.2355
     10 O          60.2006   90.7501   10.3040 O.2     1  UNL1       -0.2741
     11 C          60.1123   88.3386    9.1542 C.3     1  UNL1        0.0903
     12 C          60.9733   87.1110    9.1970 C.3     1  UNL1        0.0903
     13 C          62.1248   87.3843   10.1187 C.2     1  UNL1        0.2355
     14 O          63.2313   86.4288   10.4545 O.2     1  UNL1       -0.2741
     15 C          60.3539   86.0791    8.3018 C.3     1  UNL1        0.0311
     16 C          59.2024   85.8058    7.3801 C.2     1  UNL1       -0.0305
     17 C          58.3415   87.0333    7.3374 C.2     1  UNL1       -0.0305
     18 C          58.9609   88.0653    8.2326 C.3     1  UNL1        0.0311
     19 C          60.2046   87.4755    8.8286 C.3     1  UNL1        0.0096
     20 O          67.4407   91.8167   12.5599 O.2     1  UNL1       -0.2682
     21 C          67.0354   92.0146   13.9906 C.2     1  UNL1        0.2672
     22 N          65.6993   91.5262   14.4660 N.am    1  UNL1       -0.2791
     23 H          65.4333   91.6561   15.4050 H       1  UNL1        0.1552
     24 C          67.9663   92.7010   14.9456 C.ar    1  UNL1        0.1348
     25 C          68.8209   91.8895   15.8737 C.ar    1  UNL1        0.0238
     26 C          69.7519   92.5759   16.8288 C.ar    1  UNL1        0.0033
     27 C          69.8283   94.0737   16.8558 C.ar    1  UNL1        0.0207
     28 C          68.9737   94.8851   15.9277 C.ar    1  UNL1        0.0990
     29 N          68.0428   94.1988   14.9726 N.ar    1  UNL1       -0.2392
@<TRIPOS>BOND
     1    20    21    2
     2    21    22   am
     3    22     1    1
     4     1     2   ar
     5     2     3   ar
     6     3     4   ar
     7     4     8    1
     8     8     9   am
     9     9    10    2
    10    11     9    1
    11    11    12    1
    12    12    13    1
    13    13    14    2
    14    12    15    1
    15    15    16    1
    16    16    17    2
    17    18    17    1
    18    18    19    1
    19     4     5   ar
    20     5     6    1
    21     5     7   ar
    22    21    24    1
    23    24    25   ar
    24    25    26   ar
    25    26    27   ar
    26    27    28   ar
    27    28    29   ar
    28     7     1   ar
    29    29    24   ar
    30    13     8   am
    31    19    15    1
    32    18    11    1
    33    22    23    1
@<TRIPOS>MOLECULE
*****
 29 33 0 0 0
SMALL
GASTEIGER

@<TRIPOS>ATOM
      1 C          60.8929   88.2687    8.8993 C.ar    1  UNL1        0.0515
      2 C          60.5426   86.8442    8.5858 C.ar    1  UNL1        0.0160
      3 C          61.0686   85.7353    9.4481 C.ar    1  UNL1        0.0174
      4 C          61.9450   86.0509   10.6239 C.ar    1  UNL1        0.0712
      5 C          62.2953   87.4753   10.9373 C.ar    1  UNL1        0.0729
      6 CL         63.1717   87.7909   12.1130 Cl      1  UNL1       -0.0809
      7 C          61.7693   88.5842   10.0750 C.ar    1  UNL1        0.0273
      8 N          62.4712   84.9420   11.4863 N.am    1  UNL1       -0.2073
      9 C          63.2989   83.7806   11.0214 C.2     1  UNL1        0.2355
     10 O          63.7457   83.5242    9.6126 O.2     1  UNL1       -0.2741
     11 C          63.6013   82.9207   12.2126 C.3     1  UNL1        0.0903
     12 C          62.9605   83.5507   13.4137 C.3     1  UNL1        0.0903
     13 C          62.2620   84.7999   12.9647 C.2     1  UNL1        0.2355
     14 O          61.4900   85.7416   13.8406 O.2     1  UNL1       -0.2741
     15 C          63.2629   82.6907   14.6049 C.3     1  UNL1        0.0311
     16 C          63.9613   81.4414   15.0539 C.2     1  UNL1       -0.0305
     17 C          64.6021   80.8115   13.8528 C.2     1  UNL1       -0.0305
     18 C          64.2997   81.6715   12.6615 C.3     1  UNL1        0.0311
     19 C          63.4720   82.8328   13.1264 C.3     1  UNL1        0.0096
     20 O          59.0412   87.6481    6.6219 O.2     1  UNL1       -0.2682
     21 C          59.4410   89.0673    6.8982 C.2     1  UNL1        0.2672
     22 N          60.3668   89.3776    8.0369 N.am    1  UNL1       -0.2791
     23 H          60.6291   90.3090    8.2182 H       1  UNL1        0.1552
     24 C          58.9149   90.1762    6.0359 C.ar    1  UNL1        0.1348
     25 C          59.8682   91.0814    5.3136 C.ar    1  UNL1        0.0238
     26 C          59.3421   92.1902    4.4513 C.ar    1  UNL1        0.0033
     27 C          57.8626   92.3938    4.3111 C.ar    1  UNL1        0.0207
     28 C          56.9093   91.4885    5.0334 C.ar    1  UNL1        0.0990
     29 N          57.4354   90.3797    5.8958 N.ar    1  UNL1       -0.2392
@<TRIPOS>BOND
     1    20    21    2
     2    21    22   am
     3    22     1    1
     4     1     2   ar
     5     2     3   ar
     6     3     4   ar
     7     4     8    1
     8     8     9   am
     9     9    10    2
    10    11     9    1
    11    11    12    1
    12    12    13    1
    13    13    14    2
    14    12    15    1
    15    15    16    1
    16    16    17    2
    17    18    17    1
    18    18    19    1
    19     4     5   ar
    20     5     6    1
    21     5     7   ar
    22    21    24    1
    23    24    25   ar
    24    25    26   ar
    25    26    27   ar
    26    27    28   ar
    27    28    29   ar
    28     7     1   ar
    29    29    24   ar
    30    13     8   am
    31    19    15    1
    32    18    11    1
    33    22    23    1
