@<TRIPOS>MOLECULE
*****
 25 27 0 0 0
SMALL
GASTEIGER

@<TRIPOS>ATOM
      1 C          63.2112   88.0810   16.1090 C.ar    1  UNL1        0.3038
      2 N          62.1313   87.8691   17.1283 N.ar    1  UNL1       -0.1024
      3 N          61.8992   86.3927   17.2576 N.ar    1  UNL1       -0.1094
      4 C          62.8357   85.6923   16.3181 C.ar    1  UNL1        0.2508
      5 O          63.6465   86.7357   15.6083 O.2     1  UNL1       -0.4143
      6 O          63.3491   90.6614   16.3783 O.2     1  UNL1       -0.2650
      7 C          63.7594   89.4057   15.6678 C.2     1  UNL1        0.3013
      8 N          64.7180   89.4747   14.5161 N.am    1  UNL1       -0.2986
      9 H          64.9873   88.6505   14.0498 H       1  UNL1        0.1498
     10 C          65.2663   90.7994   14.0750 C.3     1  UNL1        0.0720
     11 C          64.7754   91.4289   12.8050 C.3     1  UNL1        0.0196
     12 C          65.3237   92.7536   12.3639 C.3     1  UNL1        0.0017
     13 C          66.3628   93.4488   13.1928 C.3     1  UNL1        0.0001
     14 C          66.8537   92.8193   14.4627 C.3     1  UNL1        0.0017
     15 C          66.3054   91.4946   14.9038 C.3     1  UNL1        0.0196
     16 C          62.9425   84.2090   16.1229 C.3     1  UNL1        0.2420
     17 S          63.1293   83.6453   14.7454 S.O2    1  UNL1        0.0178
     18 O          62.1019   84.6007   14.2149 O.2     1  UNL1       -0.1681
     19 O          64.1569   82.6898   15.2759 O.2     1  UNL1       -0.1681
     20 C          63.3162   83.0815   13.3680 C.ar    1  UNL1        0.1062
     21 C          64.2163   83.7757   12.3893 C.ar    1  UNL1        0.0184
     22 C          64.4032   83.2119   11.0118 C.ar    1  UNL1        0.0013
     23 C          63.6900   81.9540   10.6131 C.ar    1  UNL1        0.0001
     24 C          62.7899   81.2599   11.5920 C.ar    1  UNL1        0.0013
     25 C          62.6031   81.8236   12.9694 C.ar    1  UNL1        0.0184
@<TRIPOS>BOND
     1     6     7    2
     2     7     8   am
     3     8    10    1
     4    10    11    1
     5    11    12    1
     6    12    13    1
     7    13    14    1
     8    14    15    1
     9     7     1    1
    10     1     2   ar
    11     2     3   ar
    12     3     4   ar
    13     4    16    1
    14    16    17    1
    15    17    18    2
    16    17    19    2
    17    17    20    1
    18    20    21   ar
    19    21    22   ar
    20    22    23   ar
    21    23    24   ar
    22    24    25   ar
    23     4     5   ar
    24    15    10    1
    25     5     1   ar
    26    25    20   ar
    27     8     9    1
@<TRIPOS>MOLECULE
*****
 25 27 0 0 0
SMALL
GASTEIGER

@<TRIPOS>ATOM
      1 C          63.3199   86.1006   15.6711 C.ar    1  UNL1        0.3038
      2 N          62.7249   86.3878   17.0177 N.ar    1  UNL1       -0.1024
      3 N          62.8176   87.8653   17.2599 N.ar    1  UNL1       -0.1094
      4 C          63.4700   88.4911   16.0628 C.ar    1  UNL1        0.2508
      5 O          63.7804   87.4004   15.0809 O.2     1  UNL1       -0.4143
      6 O          64.6306   83.8879   15.3018 O.2     1  UNL1       -0.2650
      7 C          63.4344   84.7504   15.0276 C.2     1  UNL1        0.3013
      8 N          62.3527   84.2628   14.1100 N.am    1  UNL1       -0.2986
      9 H          61.5676   84.8289   13.9300 H       1  UNL1        0.1498
     10 C          62.4672   82.9126   13.4665 C.3     1  UNL1        0.0720
     11 C          62.9381   82.7957   12.0472 C.3     1  UNL1        0.0196
     12 C          63.0525   81.4456   11.4037 C.3     1  UNL1        0.0017
     13 C          62.6961   80.2124   12.1796 C.3     1  UNL1        0.0001
     14 C          62.2251   80.3293   13.5990 C.3     1  UNL1        0.0017
     15 C          62.1107   81.6794   14.2424 C.3     1  UNL1        0.0196
     16 C          63.7608   89.9511   15.8798 C.3     1  UNL1        0.2420
     17 S          63.9419   90.5128   14.5008 S.O2    1  UNL1        0.0178
     18 O          65.3282   90.9563   14.8634 O.2     1  UNL1       -0.1681
     19 O          62.5556   90.0693   14.1382 O.2     1  UNL1       -0.1681
     20 C          64.1230   91.0745   13.1218 C.ar    1  UNL1        0.1062
     21 C          63.2115   90.6439   12.0110 C.ar    1  UNL1        0.0184
     22 C          63.3925   91.2056   10.6319 C.ar    1  UNL1        0.0013
     23 C          64.4851   92.1978   10.3636 C.ar    1  UNL1        0.0001
     24 C          65.3965   92.6282   11.4745 C.ar    1  UNL1        0.0013
     25 C          65.2155   92.0666   12.8535 C.ar    1  UNL1        0.0184
@<TRIPOS>BOND
     1     6     7    2
     2     7     8   am
     3     8    10    1
     4    10    11    1
     5    11    12    1
     6    12    13    1
     7    13    14    1
     8    14    15    1
     9     7     1    1
    10     1     2   ar
    11     2     3   ar
    12     3     4   ar
    13     4    16    1
    14    16    17    1
    15    17    18    2
    16    17    19    2
    17    17    20    1
    18    20    21   ar
    19    21    22   ar
    20    22    23   ar
    21    23    24   ar
    22    24    25   ar
    23     4     5   ar
    24    15    10    1
    25     5     1   ar
    26    25    20   ar
    27     8     9    1
@<TRIPOS>MOLECULE
*****
 25 27 0 0 0
SMALL
GASTEIGER

@<TRIPOS>ATOM
      1 C          63.1611   90.4004   12.6641 C.ar    1  UNL1        0.3038
      2 N          63.1739   90.4949   14.1611 N.ar    1  UNL1       -0.1024
      3 N          64.3554   91.3274   14.5629 N.ar    1  UNL1       -0.1094
      4 C          65.0726   91.7474   13.3141 C.ar    1  UNL1        0.2508
      5 O          64.3345   91.1745   12.1407 O.2     1  UNL1       -0.4143
      6 O          60.7663   89.4382   12.3653 O.2     1  UNL1       -0.2650
      7 C          62.1519   89.6615   11.8360 C.2     1  UNL1        0.3013
      8 N          62.5284   89.1460   10.4787 N.am    1  UNL1       -0.2986
      9 H          63.4379   89.2926   10.1313 H       1  UNL1        0.1498
     10 C          61.5193   88.4071    9.6505 C.3     1  UNL1        0.0720
     11 C          60.4623   89.1653    8.9036 C.3     1  UNL1        0.0196
     12 C          59.4532   88.4264    8.0756 C.3     1  UNL1        0.0017
     13 C          59.5011   86.9293    7.9944 C.3     1  UNL1        0.0001
     14 C          60.5581   86.1712    8.7413 C.3     1  UNL1        0.0017
     15 C          61.5672   86.9101    9.5694 C.3     1  UNL1        0.0196
     16 C          66.3104   92.5920   13.2501 C.3     1  UNL1        0.2420
     17 S          66.5206   93.5287   12.0975 S.O2    1  UNL1        0.0178
     18 O          67.2270   92.4417   11.3429 O.2     1  UNL1       -0.1681
     19 O          65.8142   94.6157   12.8521 O.2     1  UNL1       -0.1681
     20 C          66.7308   94.4654   10.9449 C.ar    1  UNL1        0.1062
     21 C          67.3010   93.9523    9.6559 C.ar    1  UNL1        0.0184
     22 C          67.5112   94.8890    8.5032 C.ar    1  UNL1        0.0013
     23 C          67.1512   96.3388    8.6397 C.ar    1  UNL1        0.0001
     24 C          66.5810   96.8517    9.9288 C.ar    1  UNL1        0.0013
     25 C          66.3708   95.9150   11.0814 C.ar    1  UNL1        0.0184
@<TRIPOS>BOND
     1     6     7    2
     2     7     8   am
     3     8    10    1
     4    10    11    1
     5    11    12    1
     6    12    13    1
     7    13    14    1
     8    14    15    1
     9     7     1    1
    10     1     2   ar
    11     2     3   ar
    12     3     4   ar
    13     4    16    1
    14    16    17    1
    15    17    18    2
    16    17    19    2
    17    17    20    1
    18    20    21   ar
    19    21    22   ar
    20    22    23   ar
    21    23    24   ar
    22    24    25   ar
    23     4     5   ar
    24    15    10    1
    25     5     1   ar
    26    25    20   ar
    27     8     9    1
@<TRIPOS>MOLECULE
*****
 25 27 0 0 0
SMALL
GASTEIGER

@<TRIPOS>ATOM
      1 C          64.0707   89.1194   14.6675 C.ar    1  UNL1        0.3038
      2 N          63.2711   89.8978   15.6698 N.ar    1  UNL1       -0.1024
      3 N          63.8687   91.2697   15.7748 N.ar    1  UNL1       -0.1094
      4 C          65.0376   91.3390   14.8372 C.ar    1  UNL1        0.2508
      5 O          65.1624   90.0100   14.1529 O.2     1  UNL1       -0.4143
      6 O          63.3838   87.3934   12.8510 O.2     1  UNL1       -0.2650
      7 C          63.8221   87.6994   14.2525 C.2     1  UNL1        0.3013
      8 N          64.0117   86.5856   15.2391 N.am    1  UNL1       -0.2986
      9 H          64.2993   86.7865   16.1590 H       1  UNL1        0.1498
     10 C          63.7631   85.1657   14.8242 C.3     1  UNL1        0.0720
     11 C          64.6985   84.4895   13.8662 C.3     1  UNL1        0.0196
     12 C          64.4498   83.0697   13.4513 C.3     1  UNL1        0.0017
     13 C          63.2658   82.3260   13.9945 C.3     1  UNL1        0.0001
     14 C          62.3304   83.0022   14.9525 C.3     1  UNL1        0.0017
     15 C          62.5790   84.4220   15.3673 C.3     1  UNL1        0.0196
     16 C          65.9257   92.5284   14.6218 C.3     1  UNL1        0.2420
     17 S          66.3565   92.9014   13.2343 S.O2    1  UNL1        0.0178
     18 O          64.9472   92.7289   12.7503 O.2     1  UNL1       -0.1681
     19 O          67.7658   93.0739   13.7183 O.2     1  UNL1       -0.1681
     20 C          66.7873   93.2745   11.8467 C.ar    1  UNL1        0.1062
     21 C          66.4494   94.6277   11.2949 C.ar    1  UNL1        0.0184
     22 C          66.8802   95.0008    9.9073 C.ar    1  UNL1        0.0013
     23 C          67.6489   94.0206    9.0716 C.ar    1  UNL1        0.0001
     24 C          67.9867   92.6674    9.6236 C.ar    1  UNL1        0.0013
     25 C          67.5559   92.2943   11.0111 C.ar    1  UNL1        0.0184
@<TRIPOS>BOND
     1     6     7    2
     2     7     8   am
     3     8    10    1
     4    10    11    1
     5    11    12    1
     6    12    13    1
     7    13    14    1
     8    14    15    1
     9     7     1    1
    10     1     2   ar
    11     2     3   ar
    12     3     4   ar
    13     4    16    1
    14    16    17    1
    15    17    18    2
    16    17    19    2
    17    17    20    1
    18    20    21   ar
    19    21    22   ar
    20    22    23   ar
    21    23    24   ar
    22    24    25   ar
    23     4     5   ar
    24    15    10    1
    25     5     1   ar
    26    25    20   ar
    27     8     9    1
@<TRIPOS>MOLECULE
*****
 25 27 0 0 0
SMALL
GASTEIGER

@<TRIPOS>ATOM
      1 C          64.0691   89.1307   14.6618 C.ar    1  UNL1        0.3038
      2 N          63.2630   89.9216   15.6491 N.ar    1  UNL1       -0.1024
      3 N          63.8648   91.2922   15.7468 N.ar    1  UNL1       -0.1094
      4 C          65.0428   91.3483   14.8198 C.ar    1  UNL1        0.2508
      5 O          65.1690   90.0124   14.1493 O.2     1  UNL1       -0.4143
      6 O          63.3657   87.3927   12.8633 O.2     1  UNL1       -0.2650
      7 C          63.8191   87.7079   14.2580 C.2     1  UNL1        0.3013
      8 N          64.0224   86.6002   15.2488 N.am    1  UNL1       -0.2986
      9 H          64.3200   86.8071   16.1642 H       1  UNL1        0.1498
     10 C          63.7724   85.1774   14.8450 C.3     1  UNL1        0.0720
     11 C          62.5559   84.4579   15.3474 C.3     1  UNL1        0.0196
     12 C          62.3059   83.0351   14.9436 C.3     1  UNL1        0.0017
     13 C          63.2724   82.3318   14.0373 C.3     1  UNL1        0.0001
     14 C          64.4889   83.0513   13.5349 C.3     1  UNL1        0.0017
     15 C          64.7389   84.4741   13.9387 C.3     1  UNL1        0.0196
     16 C          65.9374   92.5323   14.6016 C.3     1  UNL1        0.2420
     17 S          66.3815   92.8914   13.2146 S.O2    1  UNL1        0.0178
     18 O          67.7827   93.0859   13.7135 O.2     1  UNL1       -0.1681
     19 O          64.9803   92.6969   12.7157 O.2     1  UNL1       -0.1681
     20 C          66.8255   93.2506   11.8276 C.ar    1  UNL1        0.1062
     21 C          66.5082   94.6046   11.2656 C.ar    1  UNL1        0.0184
     22 C          66.9522   94.9638    9.8785 C.ar    1  UNL1        0.0013
     23 C          67.7135   93.9689    9.0534 C.ar    1  UNL1        0.0001
     24 C          68.0307   92.6148    9.6156 C.ar    1  UNL1        0.0013
     25 C          67.5867   92.2557   11.0026 C.ar    1  UNL1        0.0184
@<TRIPOS>BOND
     1     6     7    2
     2     7     8   am
     3     8    10    1
     4    10    11    1
     5    11    12    1
     6    12    13    1
     7    13    14    1
     8    14    15    1
     9     7     1    1
    10     1     2   ar
    11     2     3   ar
    12     3     4   ar
    13     4    16    1
    14    16    17    1
    15    17    18    2
    16    17    19    2
    17    17    20    1
    18    20    21   ar
    19    21    22   ar
    20    22    23   ar
    21    23    24   ar
    22    24    25   ar
    23     4     5   ar
    24    15    10    1
    25     5     1   ar
    26    25    20   ar
    27     8     9    1
@<TRIPOS>MOLECULE
*****
 25 27 0 0 0
SMALL
GASTEIGER

@<TRIPOS>ATOM
      1 C          63.7820   89.1795   14.7160 C.ar    1  UNL1        0.3038
      2 N          63.1071   89.2868   16.0512 N.ar    1  UNL1       -0.1024
      3 N          63.0955   87.9229   16.6756 N.ar    1  UNL1       -0.1094
      4 C          63.7633   86.9728   15.7262 C.ar    1  UNL1        0.2508
      5 O          64.1876   87.7494   14.5151 O.2     1  UNL1       -0.4143
      6 O          62.9551   90.6576   12.7458 O.2     1  UNL1       -0.2650
      7 C          64.0111   90.3048   13.7510 C.2     1  UNL1        0.3013
      8 N          65.2962   91.0774   13.7912 N.am    1  UNL1       -0.2986
      9 H          65.9893   90.8459   14.4510 H       1  UNL1        0.1498
     10 C          65.5254   92.2028   12.8262 C.3     1  UNL1        0.0720
     11 C          66.1749   93.4713   13.2940 C.3     1  UNL1        0.0196
     12 C          66.4040   94.5966   12.3290 C.3     1  UNL1        0.0017
     13 C          65.9836   94.4533   10.8963 C.3     1  UNL1        0.0001
     14 C          65.3340   93.1848   10.4285 C.3     1  UNL1        0.0017
     15 C          65.1049   92.0595   11.3935 C.3     1  UNL1        0.0196
     16 C          63.9704   85.5040   15.9488 C.3     1  UNL1        0.2420
     17 S          63.7266   84.5341   14.8307 S.O2    1  UNL1        0.0178
     18 O          65.2013   84.4705   14.5642 O.2     1  UNL1       -0.1681
     19 O          62.2518   84.5978   15.0974 O.2     1  UNL1       -0.1681
     20 C          63.4826   83.5643   13.7127 C.ar    1  UNL1        0.1062
     21 C          64.1884   83.7393   12.4008 C.ar    1  UNL1        0.0184
     22 C          63.9445   82.7694   11.2827 C.ar    1  UNL1        0.0013
     23 C          62.9948   81.6247   11.4767 C.ar    1  UNL1        0.0001
     24 C          62.2891   81.4498   12.7887 C.ar    1  UNL1        0.0013
     25 C          62.5330   82.4196   13.9067 C.ar    1  UNL1        0.0184
@<TRIPOS>BOND
     1     6     7    2
     2     7     8   am
     3     8    10    1
     4    10    11    1
     5    11    12    1
     6    12    13    1
     7    13    14    1
     8    14    15    1
     9     7     1    1
    10     1     2   ar
    11     2     3   ar
    12     3     4   ar
    13     4    16    1
    14    16    17    1
    15    17    18    2
    16    17    19    2
    17    17    20    1
    18    20    21   ar
    19    21    22   ar
    20    22    23   ar
    21    23    24   ar
    22    24    25   ar
    23     4     5   ar
    24    15    10    1
    25     5     1   ar
    26    25    20   ar
    27     8     9    1
@<TRIPOS>MOLECULE
*****
 25 27 0 0 0
SMALL
GASTEIGER

@<TRIPOS>ATOM
      1 C          63.0767   90.3068   12.1244 C.ar    1  UNL1        0.3038
      2 N          62.3871   90.9760   10.9726 N.ar    1  UNL1       -0.1024
      3 N          61.5925   89.9356   10.2403 N.ar    1  UNL1       -0.1094
      4 C          61.7911   88.6235   10.9396 C.ar    1  UNL1        0.2508
      5 O          62.7083   88.8529   12.1040 O.2     1  UNL1       -0.4143
      6 O          63.4928   91.2241   14.5193 O.2     1  UNL1       -0.2650
      7 C          63.9767   90.9745   13.1216 C.2     1  UNL1        0.3013
      8 N          65.3605   91.3924   12.7211 N.am    1  UNL1       -0.2986
      9 H          65.6781   91.2285   11.8038 H       1  UNL1        0.1498
     10 C          66.2605   92.0600   13.7183 C.3     1  UNL1        0.0720
     11 C          66.4267   93.5506   13.6985 C.3     1  UNL1        0.0196
     12 C          67.3267   94.2181   14.6957 C.3     1  UNL1        0.0017
     13 C          68.0604   93.3951   15.7127 C.3     1  UNL1        0.0001
     14 C          67.8942   91.9045   15.7325 C.3     1  UNL1        0.0017
     15 C          66.9942   91.2369   14.7353 C.3     1  UNL1        0.0196
     16 C          61.1797   87.3122   10.5438 C.3     1  UNL1        0.2420
     17 S          61.9399   86.0363   10.7541 S.O2    1  UNL1        0.0178
     18 O          62.4218   86.0894    9.3346 O.2     1  UNL1       -0.1681
     19 O          61.4580   85.9832   12.1737 O.2     1  UNL1       -0.1681
     20 C          62.7001   84.7604   10.9644 C.ar    1  UNL1        0.1062
     21 C          62.6767   84.0856   12.3039 C.ar    1  UNL1        0.0184
     22 C          63.4369   82.8097   12.5143 C.ar    1  UNL1        0.0013
     23 C          64.2204   82.2086   11.3852 C.ar    1  UNL1        0.0001
     24 C          64.2437   82.8835   10.0457 C.ar    1  UNL1        0.0013
     25 C          63.4835   84.1593    9.8354 C.ar    1  UNL1        0.0184
@<TRIPOS>BOND
     1     6     7    2
     2     7     8   am
     3     8    10    1
     4    10    11    1
     5    11    12    1
     6    12    13    1
     7    13    14    1
     8    14    15    1
     9     7     1    1
    10     1     2   ar
    11     2     3   ar
    12     3     4   ar
    13     4    16    1
    14    16    17    1
    15    17    18    2
    16    17    19    2
    17    17    20    1
    18    20    21   ar
    19    21    22   ar
    20    22    23   ar
    21    23    24   ar
    22    24    25   ar
    23     4     5   ar
    24    15    10    1
    25     5     1   ar
    26    25    20   ar
    27     8     9    1
@<TRIPOS>MOLECULE
*****
 25 27 0 0 0
SMALL
GASTEIGER

@<TRIPOS>ATOM
      1 C          62.5145   87.7540   11.3495 C.ar    1  UNL1        0.3038
      2 N          62.5128   88.4724   10.0327 N.ar    1  UNL1       -0.1024
      3 N          62.7530   89.9290   10.2992 N.ar    1  UNL1       -0.1094
      4 C          62.9031   90.1106   11.7807 C.ar    1  UNL1        0.2508
      5 O          62.7556   88.7663   12.4297 O.2     1  UNL1       -0.4143
      6 O          61.3636   85.5276   10.6648 O.2     1  UNL1       -0.2650
      7 C          62.3107   86.2815   11.5506 C.2     1  UNL1        0.3013
      8 N          63.0540   85.5630   12.6374 N.am    1  UNL1       -0.2986
      9 H          63.6755   86.0579   13.2188 H       1  UNL1        0.1498
     10 C          62.8502   84.0905   12.8386 C.3     1  UNL1        0.0720
     11 C          63.1501   83.1328   11.7238 C.3     1  UNL1        0.0196
     12 C          62.9463   81.6604   11.9250 C.3     1  UNL1        0.0017
     13 C          62.4426   81.1458   13.2408 C.3     1  UNL1        0.0001
     14 C          62.1427   82.1036   14.3556 C.3     1  UNL1        0.0017
     15 C          62.3465   83.5760   14.1544 C.3     1  UNL1        0.0196
     16 C          63.1561   91.4084   12.4887 C.3     1  UNL1        0.2420
     17 S          64.4600   91.6361   13.1945 S.O2    1  UNL1        0.0178
     18 O          63.8120   91.2916   14.5027 O.2     1  UNL1       -0.1681
     19 O          65.1079   91.9806   11.8862 O.2     1  UNL1       -0.1681
     20 C          65.7638   91.8637   13.9002 C.ar    1  UNL1        0.1062
     21 C          65.7790   92.1605   15.3705 C.ar    1  UNL1        0.0184
     22 C          67.0829   92.3882   16.0763 C.ar    1  UNL1        0.0013
     23 C          68.3716   92.3191   15.3118 C.ar    1  UNL1        0.0001
     24 C          68.3563   92.0223   13.8415 C.ar    1  UNL1        0.0013
     25 C          67.0525   91.7946   13.1357 C.ar    1  UNL1        0.0184
@<TRIPOS>BOND
     1     6     7    2
     2     7     8   am
     3     8    10    1
     4    10    11    1
     5    11    12    1
     6    12    13    1
     7    13    14    1
     8    14    15    1
     9     7     1    1
    10     1     2   ar
    11     2     3   ar
    12     3     4   ar
    13     4    16    1
    14    16    17    1
    15    17    18    2
    16    17    19    2
    17    17    20    1
    18    20    21   ar
    19    21    22   ar
    20    22    23   ar
    21    23    24   ar
    22    24    25   ar
    23     4     5   ar
    24    15    10    1
    25     5     1   ar
    26    25    20   ar
    27     8     9    1
@<TRIPOS>MOLECULE
*****
 25 27 0 0 0
SMALL
GASTEIGER

@<TRIPOS>ATOM
      1 C          63.2295   90.2531   12.5289 C.ar    1  UNL1        0.3038
      2 N          62.5727   91.2184   11.5872 N.ar    1  UNL1       -0.1024
      3 N          61.4656   90.4949   10.8794 N.ar    1  UNL1       -0.1094
      4 C          61.4382   89.0824   11.3837 C.ar    1  UNL1        0.2508
      5 O          62.5284   88.9330   12.4032 O.2     1  UNL1       -0.4143
      6 O          64.6941   89.6415   14.5859 O.2     1  UNL1       -0.2650
      7 C          64.3847   90.5549   13.4370 C.2     1  UNL1        0.3013
      8 N          65.2303   91.7701   13.1963 N.am    1  UNL1       -0.2986
      9 H          65.0272   92.3696   12.4422 H       1  UNL1        0.1498
     10 C          66.3855   92.0720   14.1044 C.3     1  UNL1        0.0720
     11 C          66.1344   92.5496   15.5039 C.3     1  UNL1        0.0196
     12 C          67.2895   92.8514   16.4119 C.3     1  UNL1        0.0017
     13 C          68.6958   92.6756   15.9204 C.3     1  UNL1        0.0001
     14 C          68.9469   92.1979   14.5208 C.3     1  UNL1        0.0017
     15 C          67.7917   91.8961   13.6128 C.3     1  UNL1        0.0196
     16 C          60.4877   88.0081   10.9455 C.3     1  UNL1        0.2420
     17 S          60.8481   87.1092    9.8001 S.O2    1  UNL1        0.0178
     18 O          61.4535   86.1285   10.7601 O.2     1  UNL1       -0.1681
     19 O          60.2426   88.0899    8.8400 O.2     1  UNL1       -0.1681
     20 C          61.2085   86.2103    8.6546 C.ar    1  UNL1        0.1062
     21 C          62.6001   85.6621    8.5405 C.ar    1  UNL1        0.0184
     22 C          62.9605   84.7632    7.3949 C.ar    1  UNL1        0.0013
     23 C          61.9293   84.4125    6.3636 C.ar    1  UNL1        0.0001
     24 C          60.5377   84.9607    6.4779 C.ar    1  UNL1        0.0013
     25 C          60.1773   85.8596    7.6233 C.ar    1  UNL1        0.0184
@<TRIPOS>BOND
     1     6     7    2
     2     7     8   am
     3     8    10    1
     4    10    11    1
     5    11    12    1
     6    12    13    1
     7    13    14    1
     8    14    15    1
     9     7     1    1
    10     1     2   ar
    11     2     3   ar
    12     3     4   ar
    13     4    16    1
    14    16    17    1
    15    17    18    2
    16    17    19    2
    17    17    20    1
    18    20    21   ar
    19    21    22   ar
    20    22    23   ar
    21    23    24   ar
    22    24    25   ar
    23     4     5   ar
    24    15    10    1
    25     5     1   ar
    26    25    20   ar
    27     8     9    1
