@<TRIPOS>MOLECULE
*****
 21 23 0 0 0
SMALL
GASTEIGER

@<TRIPOS>ATOM
      1 C          65.0134   91.8620   12.9171 C.ar    1  UNL1        0.0008
      2 C          65.3440   92.9235   11.9103 C.ar    1  UNL1        0.0064
      3 S          64.6168   92.5992   10.6391 S.2     1  UNL1       -0.0915
      4 C          63.8367   91.3372   10.8603 C.ar    1  UNL1        0.0289
      5 C          62.9348   90.5442    9.9616 C.ar    1  UNL1        0.0065
      6 C          62.2780   89.2955   10.4709 C.ar    1  UNL1        0.0005
      7 C          62.5231   88.8399   11.8789 C.ar    1  UNL1        0.0000
      8 C          63.4250   89.6330   12.7776 C.ar    1  UNL1        0.0002
      9 C          64.0818   90.8816   12.2683 C.ar    1  UNL1        0.0039
     10 C          64.6417   91.2682   15.4191 C.3     1  UNL1        0.0295
     11 C          65.5245   91.7929   14.3257 C.3     1  UNL1        0.1097
     12 N          66.9184   92.2485   14.6409 N.ar    1  UNL1       -0.3058
     13 C          67.3144   93.1657   15.7598 C.ar    1  UNL1        0.0982
     14 C          68.8018   93.3509   15.7030 C.ar    1  UNL1        0.1193
     15 N          69.3252   92.5482   14.5490 N.ar    1  UNL1       -0.2223
     16 C          68.1611   91.8668   13.8926 C.ar    1  UNL1        0.1788
     17 C          66.2440   94.1023   12.1351 C.3     1  UNL1        0.0500
     18 C          66.1152   95.3202   11.2690 C.3     1  UNL1        0.0774
     19 N          67.0184   95.4971   10.0846 N.3     1  UNL1       -0.2700
     20 C          67.7409   94.3152    9.5091 C.3     1  UNL1        0.0897
     21 C          67.1993   96.8560    9.4757 C.3     1  UNL1        0.0897
@<TRIPOS>BOND
     1    10    11    1
     2    11     1    1
     3     1     2   ar
     4     2    17    1
     5    17    18    1
     6    18    19    1
     7    19    20    1
     8    19    21    1
     9     2     3   ar
    10     3     4   ar
    11     4     5   ar
    12     5     6   ar
    13     6     7   ar
    14     7     8   ar
    15     8     9   ar
    16    11    12    1
    17    12    13   ar
    18    13    14   ar
    19    14    15   ar
    20    15    16   ar
    21     9     1   ar
    22    16    12   ar
    23     9     4   ar
@<TRIPOS>MOLECULE
*****
 21 23 0 0 0
SMALL
GASTEIGER

@<TRIPOS>ATOM
      1 C          66.0542   92.4997   11.9223 C.ar    1  UNL1        0.0008
      2 C          64.7437   91.7761   11.8274 C.ar    1  UNL1        0.0064
      3 S          64.2946   91.4462   13.2201 S.2     1  UNL1       -0.0915
      4 C          65.3276   91.9658   14.1756 C.ar    1  UNL1        0.0289
      5 C          65.4184   91.9301   15.6724 C.ar    1  UNL1        0.0065
      6 C          66.5967   92.5456   16.3671 C.ar    1  UNL1        0.0005
      7 C          67.6842   93.1967   15.5651 C.ar    1  UNL1        0.0000
      8 C          67.5934   93.2324   14.0683 C.ar    1  UNL1        0.0002
      9 C          66.4151   92.6169   13.3735 C.ar    1  UNL1        0.0039
     10 C          67.7056   92.0726    9.9625 C.3     1  UNL1        0.0295
     11 C          66.8621   93.0155   10.7685 C.3     1  UNL1        0.1097
     12 N          66.8266   94.4741   10.4206 N.ar    1  UNL1       -0.3058
     13 C          67.4652   95.1105    9.2218 C.ar    1  UNL1        0.0982
     14 C          67.1795   96.5822    9.2708 C.ar    1  UNL1        0.1193
     15 N          66.3643   96.8555   10.4999 N.ar    1  UNL1       -0.2223
     16 C          66.1462   95.5526   11.2106 C.ar    1  UNL1        0.1788
     17 C          64.0110   91.4413   10.5621 C.3     1  UNL1        0.0500
     18 C          62.5494   91.1075   10.6078 C.3     1  UNL1        0.0774
     19 N          62.1036   89.6778   10.5222 N.3     1  UNL1       -0.2700
     20 C          61.1087   89.2636    9.4787 C.3     1  UNL1        0.0897
     21 C          62.6526   88.6623   11.4799 C.3     1  UNL1        0.0897
@<TRIPOS>BOND
     1    10    11    1
     2    11     1    1
     3     1     2   ar
     4     2    17    1
     5    17    18    1
     6    18    19    1
     7    19    20    1
     8    19    21    1
     9     2     3   ar
    10     3     4   ar
    11     4     5   ar
    12     5     6   ar
    13     6     7   ar
    14     7     8   ar
    15     8     9   ar
    16    11    12    1
    17    12    13   ar
    18    13    14   ar
    19    14    15   ar
    20    15    16   ar
    21     9     1   ar
    22    16    12   ar
    23     9     4   ar
@<TRIPOS>MOLECULE
*****
 21 23 0 0 0
SMALL
GASTEIGER

@<TRIPOS>ATOM
      1 C          63.3897   85.5897   12.9943 C.ar    1  UNL1        0.0008
      2 C          62.8622   84.4973   12.1121 C.ar    1  UNL1        0.0064
      3 S          62.2438   85.1354   10.9037 S.2     1  UNL1       -0.0915
      4 C          62.3892   86.6222   11.0390 C.ar    1  UNL1        0.0289
      5 C          61.9681   87.7566   10.1526 C.ar    1  UNL1        0.0065
      6 C          62.2553   89.1718   10.5582 C.ar    1  UNL1        0.0005
      7 C          62.9636   89.4526   11.8503 C.ar    1  UNL1        0.0000
      8 C          63.3846   88.3182   12.7368 C.ar    1  UNL1        0.0002
      9 C          63.0974   86.9030   12.3311 C.ar    1  UNL1        0.0039
     10 C          65.4404   84.7560   14.3546 C.3     1  UNL1        0.0295
     11 C          64.0872   85.4019   14.3089 C.3     1  UNL1        0.1097
     12 N          63.4317   85.8599   15.5779 N.ar    1  UNL1       -0.3058
     13 C          63.6296   87.1901   16.2423 C.ar    1  UNL1        0.0982
     14 C          62.7834   87.2204   17.4804 C.ar    1  UNL1        0.1193
     15 N          62.0625   85.9090   17.5813 N.ar    1  UNL1       -0.2223
     16 C          62.4632   85.0680   16.4055 C.ar    1  UNL1        0.1788
     17 C          62.9394   83.0252   12.3897 C.3     1  UNL1        0.0500
     18 C          62.2337   82.4486   13.5811 C.3     1  UNL1        0.0774
     19 N          61.7436   81.0313   13.5491 N.3     1  UNL1       -0.2700
     20 C          62.5710   79.9662   12.8924 C.3     1  UNL1        0.0897
     21 C          60.4262   80.6790   14.1737 C.3     1  UNL1        0.0897
@<TRIPOS>BOND
     1    10    11    1
     2    11     1    1
     3     1     2   ar
     4     2    17    1
     5    17    18    1
     6    18    19    1
     7    19    20    1
     8    19    21    1
     9     2     3   ar
    10     3     4   ar
    11     4     5   ar
    12     5     6   ar
    13     6     7   ar
    14     7     8   ar
    15     8     9   ar
    16    11    12    1
    17    12    13   ar
    18    13    14   ar
    19    14    15   ar
    20    15    16   ar
    21     9     1   ar
    22    16    12   ar
    23     9     4   ar
@<TRIPOS>MOLECULE
*****
 21 23 0 0 0
SMALL
GASTEIGER

@<TRIPOS>ATOM
      1 C          63.9156   89.4422   13.5859 C.ar    1  UNL1        0.0008
      2 C          63.9663   87.9670   13.8525 C.ar    1  UNL1        0.0064
      3 S          63.2870   87.2665   12.7132 S.2     1  UNL1       -0.0915
      4 C          62.8165   88.3089   11.7425 C.ar    1  UNL1        0.0289
      5 C          62.0845   88.2073   10.4372 C.ar    1  UNL1        0.0065
      6 C          61.7410   89.4504    9.6714 C.ar    1  UNL1        0.0005
      7 C          62.1295   90.7951   10.2108 C.ar    1  UNL1        0.0000
      8 C          62.8614   90.8967   11.5160 C.ar    1  UNL1        0.0002
      9 C          63.2049   89.6536   12.2819 C.ar    1  UNL1        0.0039
     10 C          63.8174   90.8330   15.7783 C.3     1  UNL1        0.0295
     11 C          64.4769   90.5174   14.4684 C.3     1  UNL1        0.1097
     12 N          65.6977   91.2771   14.0413 N.ar    1  UNL1       -0.3058
     13 C          67.0365   91.2465   14.7169 C.ar    1  UNL1        0.0982
     14 C          67.9602   92.1512   13.9566 C.ar    1  UNL1        0.1193
     15 N          67.1923   92.7411   12.8111 N.ar    1  UNL1       -0.2223
     16 C          65.7939   92.2008   12.8634 C.ar    1  UNL1        0.1788
     17 C          64.5872   87.3079   15.0483 C.3     1  UNL1        0.0500
     18 C          64.3388   85.8531   15.3163 C.3     1  UNL1        0.0774
     19 N          63.0859   85.4234   16.0203 N.3     1  UNL1       -0.2700
     20 C          62.2799   84.2774   15.4845 C.3     1  UNL1        0.0897
     21 C          62.6391   86.1397   17.2602 C.3     1  UNL1        0.0897
@<TRIPOS>BOND
     1    10    11    1
     2    11     1    1
     3     1     2   ar
     4     2    17    1
     5    17    18    1
     6    18    19    1
     7    19    20    1
     8    19    21    1
     9     2     3   ar
    10     3     4   ar
    11     4     5   ar
    12     5     6   ar
    13     6     7   ar
    14     7     8   ar
    15     8     9   ar
    16    11    12    1
    17    12    13   ar
    18    13    14   ar
    19    14    15   ar
    20    15    16   ar
    21     9     1   ar
    22    16    12   ar
    23     9     4   ar
@<TRIPOS>MOLECULE
*****
 21 23 0 0 0
SMALL
GASTEIGER

@<TRIPOS>ATOM
      1 C          61.4361   88.1902   10.8072 C.ar    1  UNL1        0.0008
      2 C          62.1794   86.9399   11.1733 C.ar    1  UNL1        0.0064
      3 S          61.9089   85.9129   10.1140 S.2     1  UNL1       -0.0915
      4 C          60.9984   86.5285    9.0932 C.ar    1  UNL1        0.0289
      5 C          60.3977   85.9892    7.8290 C.ar    1  UNL1        0.0065
      6 C          59.5047   86.8575    6.9932 C.ar    1  UNL1        0.0005
      7 C          59.2125   88.2650    7.4216 C.ar    1  UNL1        0.0000
      8 C          59.8132   88.8043    8.6858 C.ar    1  UNL1        0.0002
      9 C          60.7062   87.9360    9.5216 C.ar    1  UNL1        0.0039
     10 C          60.2082   89.8568   12.3772 C.3     1  UNL1        0.0295
     11 C          61.4247   89.4702   11.5892 C.3     1  UNL1        0.1097
     12 N          62.6295   90.3635   11.5834 N.ar    1  UNL1       -0.3058
     13 C          63.4977   90.6808   12.7648 C.ar    1  UNL1        0.0982
     14 C          64.5825   91.6098   12.3067 C.ar    1  UNL1        0.1193
     15 N          64.3850   91.8667   10.8422 N.ar    1  UNL1       -0.2223
     16 C          63.1779   91.0964   10.3951 C.ar    1  UNL1        0.1788
     17 C          63.0418   86.7499   12.3858 C.3     1  UNL1        0.0500
     18 C          63.2205   85.3808   12.9720 C.3     1  UNL1        0.0774
     19 N          63.3254   85.2093   14.4585 N.3     1  UNL1       -0.2700
     20 C          62.4866   84.1795   15.1557 C.3     1  UNL1        0.0897
     21 C          64.2689   86.0676   15.2478 C.3     1  UNL1        0.0897
@<TRIPOS>BOND
     1    10    11    1
     2    11     1    1
     3     1     2   ar
     4     2    17    1
     5    17    18    1
     6    18    19    1
     7    19    20    1
     8    19    21    1
     9     2     3   ar
    10     3     4   ar
    11     4     5   ar
    12     5     6   ar
    13     6     7   ar
    14     7     8   ar
    15     8     9   ar
    16    11    12    1
    17    12    13   ar
    18    13    14   ar
    19    14    15   ar
    20    15    16   ar
    21     9     1   ar
    22    16    12   ar
    23     9     4   ar
@<TRIPOS>MOLECULE
*****
 21 23 0 0 0
SMALL
GASTEIGER

@<TRIPOS>ATOM
      1 C          64.7826   91.7440   12.5755 C.ar    1  UNL1        0.0008
      2 C          63.8523   90.7539   13.2115 C.ar    1  UNL1        0.0064
      3 S          64.1732   90.6906   14.6754 S.2     1  UNL1       -0.0915
      4 C          65.3017   91.6414   14.9442 C.ar    1  UNL1        0.0289
      5 C          66.0350   91.9986   16.2030 C.ar    1  UNL1        0.0065
      6 C          67.1450   93.0067   16.1640 C.ar    1  UNL1        0.0005
      7 C          67.5216   93.6577   14.8662 C.ar    1  UNL1        0.0000
      8 C          66.7883   93.3006   13.6074 C.ar    1  UNL1        0.0002
      9 C          65.6784   92.2925   13.6464 C.ar    1  UNL1        0.0039
     10 C          63.7309   91.6374   10.2021 C.3     1  UNL1        0.0295
     11 C          64.8120   92.1196   11.1236 C.3     1  UNL1        0.1097
     12 N          65.9222   92.9773   10.5931 N.ar    1  UNL1       -0.3058
     13 C          65.8693   94.4626   10.3907 C.ar    1  UNL1        0.0982
     14 C          67.1948   94.9035    9.8443 C.ar    1  UNL1        0.1193
     15 N          68.0670   93.6907    9.7089 N.ar    1  UNL1       -0.2223
     16 C          67.2805   92.5002   10.1717 C.ar    1  UNL1        0.1788
     17 C          62.7881   89.9657   12.5072 C.3     1  UNL1        0.0500
     18 C          63.0361   88.5330   12.1385 C.3     1  UNL1        0.0774
     19 N          61.9610   87.7360   11.4611 N.3     1  UNL1       -0.2700
     20 C          62.1487   86.2653   11.2329 C.3     1  UNL1        0.0897
     21 C          60.6983   88.4095   11.0118 C.3     1  UNL1        0.0897
@<TRIPOS>BOND
     1    10    11    1
     2    11     1    1
     3     1     2   ar
     4     2    17    1
     5    17    18    1
     6    18    19    1
     7    19    20    1
     8    19    21    1
     9     2     3   ar
    10     3     4   ar
    11     4     5   ar
    12     5     6   ar
    13     6     7   ar
    14     7     8   ar
    15     8     9   ar
    16    11    12    1
    17    12    13   ar
    18    13    14   ar
    19    14    15   ar
    20    15    16   ar
    21     9     1   ar
    22    16    12   ar
    23     9     4   ar
@<TRIPOS>MOLECULE
*****
 21 23 0 0 0
SMALL
GASTEIGER

@<TRIPOS>ATOM
      1 C          63.0517   84.8948   11.6362 C.ar    1  UNL1        0.0008
      2 C          63.4301   85.7860   12.7819 C.ar    1  UNL1        0.0064
      3 S          62.8917   87.1573   12.4999 S.2     1  UNL1       -0.0915
      4 C          62.1805   87.1137   11.1799 C.ar    1  UNL1        0.0289
      5 C          61.4557   88.1666   10.3951 C.ar    1  UNL1        0.0065
      6 C          60.8298   87.8212    9.0765 C.ar    1  UNL1        0.0005
      7 C          60.9286   86.4229    8.5426 C.ar    1  UNL1        0.0000
      8 C          61.6534   85.3700    9.3275 C.ar    1  UNL1        0.0002
      9 C          62.2794   85.7154   10.6461 C.ar    1  UNL1        0.0039
     10 C          64.3054   82.9768   10.4116 C.3     1  UNL1        0.0295
     11 C          63.3867   83.4387   11.5037 C.3     1  UNL1        0.1097
     12 N          62.8031   82.4445   12.4633 N.ar    1  UNL1       -0.3058
     13 C          62.8309   80.9524   12.3126 C.ar    1  UNL1        0.0982
     14 C          62.1342   80.3536   13.4983 C.ar    1  UNL1        0.1193
     15 N          61.6757   81.4756   14.3819 N.ar    1  UNL1       -0.2223
     16 C          62.0891   82.7680   13.7423 C.ar    1  UNL1        0.1788
     17 C          64.2100   85.3775   13.9963 C.3     1  UNL1        0.0500
     18 C          64.4117   86.3501   15.1203 C.3     1  UNL1        0.0774
     19 N          63.3600   86.5013   16.1791 N.3     1  UNL1       -0.2700
     20 C          63.1468   87.8309   16.8400 C.3     1  UNL1        0.0897
     21 C          62.5215   85.3229   16.5770 C.3     1  UNL1        0.0897
@<TRIPOS>BOND
     1    10    11    1
     2    11     1    1
     3     1     2   ar
     4     2    17    1
     5    17    18    1
     6    18    19    1
     7    19    20    1
     8    19    21    1
     9     2     3   ar
    10     3     4   ar
    11     4     5   ar
    12     5     6   ar
    13     6     7   ar
    14     7     8   ar
    15     8     9   ar
    16    11    12    1
    17    12    13   ar
    18    13    14   ar
    19    14    15   ar
    20    15    16   ar
    21     9     1   ar
    22    16    12   ar
    23     9     4   ar
@<TRIPOS>MOLECULE
*****
 21 23 0 0 0
SMALL
GASTEIGER

@<TRIPOS>ATOM
      1 C          63.6850   84.8359   13.5439 C.ar    1  UNL1        0.0008
      2 C          63.0841   85.5647   12.3787 C.ar    1  UNL1        0.0064
      3 S          62.5119   84.5448   11.4393 S.2     1  UNL1       -0.0915
      4 C          62.7591   83.1857   12.0240 C.ar    1  UNL1        0.0289
      5 C          62.4177   81.8076   11.5401 C.ar    1  UNL1        0.0065
      6 C          62.8014   80.6095   12.3569 C.ar    1  UNL1        0.0005
      7 C          63.5264   80.7895   13.6577 C.ar    1  UNL1        0.0000
      8 C          63.8678   82.1675   14.1416 C.ar    1  UNL1        0.0002
      9 C          63.4842   83.3657   13.3248 C.ar    1  UNL1        0.0039
     10 C          65.8647   85.5355   14.7728 C.3     1  UNL1        0.0295
     11 C          64.3670   85.4667   14.7216 C.3     1  UNL1        0.1097
     12 N          63.5516   86.0287   15.8481 N.ar    1  UNL1       -0.3058
     13 C          63.5973   87.4413   16.3505 C.ar    1  UNL1        0.0982
     14 C          62.6212   87.5624   17.4830 C.ar    1  UNL1        0.1193
     15 N          61.9722   86.2247   17.6806 N.ar    1  UNL1       -0.2223
     16 C          62.5472   85.2767   16.6702 C.ar    1  UNL1        0.1788
     17 C          63.0597   87.0521   12.1865 C.3     1  UNL1        0.0500
     18 C          62.0745   87.6699   11.2391 C.3     1  UNL1        0.0774
     19 N          61.4242   88.9777   11.5807 N.3     1  UNL1       -0.2700
     20 C          59.9335   89.1198   11.4924 C.3     1  UNL1        0.0897
     21 C          62.2646   90.1435   12.0105 C.3     1  UNL1        0.0897
@<TRIPOS>BOND
     1    10    11    1
     2    11     1    1
     3     1     2   ar
     4     2    17    1
     5    17    18    1
     6    18    19    1
     7    19    20    1
     8    19    21    1
     9     2     3   ar
    10     3     4   ar
    11     4     5   ar
    12     5     6   ar
    13     6     7   ar
    14     7     8   ar
    15     8     9   ar
    16    11    12    1
    17    12    13   ar
    18    13    14   ar
    19    14    15   ar
    20    15    16   ar
    21     9     1   ar
    22    16    12   ar
    23     9     4   ar
@<TRIPOS>MOLECULE
*****
 21 23 0 0 0
SMALL
GASTEIGER

@<TRIPOS>ATOM
      1 C          62.9628   86.2689   12.3972 C.ar    1  UNL1        0.0008
      2 C          62.3039   86.6856   11.1157 C.ar    1  UNL1        0.0064
      3 S          62.4079   88.1779   11.0050 S.2     1  UNL1       -0.0915
      4 C          63.1310   88.6835   12.2180 C.ar    1  UNL1        0.0289
      5 C          63.5215   90.0658   12.6501 C.ar    1  UNL1        0.0065
      6 C          64.2549   90.2682   13.9428 C.ar    1  UNL1        0.0005
      7 C          64.5979   89.0884   14.8033 C.ar    1  UNL1        0.0000
      8 C          64.2074   87.7062   14.3711 C.ar    1  UNL1        0.0002
      9 C          63.4740   87.5037   13.0785 C.ar    1  UNL1        0.0039
     10 C          62.8625   84.5716   14.3617 C.3     1  UNL1        0.0295
     11 C          63.0885   84.8641   12.9079 C.3     1  UNL1        0.1097
     12 N          63.4401   83.7519   11.9650 N.ar    1  UNL1       -0.3058
     13 C          62.6865   82.4658   11.7985 C.ar    1  UNL1        0.0982
     14 C          63.3877   81.6495   10.7535 C.ar    1  UNL1        0.1193
     15 N          64.5747   82.4312   10.2741 N.ar    1  UNL1       -0.2223
     16 C          64.6071   83.7306   11.0229 C.ar    1  UNL1        0.1788
     17 C          61.6550   85.7706   10.1199 C.3     1  UNL1        0.0500
     18 C          62.1164   85.7672    8.6927 C.3     1  UNL1        0.0774
     19 N          61.1249   85.5713    7.5843 N.3     1  UNL1       -0.2700
     20 C          61.4733   84.7042    6.4109 C.3     1  UNL1        0.0897
     21 C          59.7850   86.2424    7.6494 C.3     1  UNL1        0.0897
@<TRIPOS>BOND
     1    10    11    1
     2    11     1    1
     3     1     2   ar
     4     2    17    1
     5    17    18    1
     6    18    19    1
     7    19    20    1
     8    19    21    1
     9     2     3   ar
    10     3     4   ar
    11     4     5   ar
    12     5     6   ar
    13     6     7   ar
    14     7     8   ar
    15     8     9   ar
    16    11    12    1
    17    12    13   ar
    18    13    14   ar
    19    14    15   ar
    20    15    16   ar
    21     9     1   ar
    22    16    12   ar
    23     9     4   ar
