@<TRIPOS>MOLECULE
*****
 26 29 0 0 0
SMALL
GASTEIGER

@<TRIPOS>ATOM
      1 C          63.9475   90.4533   15.7571 C.ar    1  UNL1        0.1718
      2 C          63.4361   89.4485   16.7464 C.ar    1  UNL1        0.0362
      3 C          63.2468   88.0189   16.3336 C.ar    1  UNL1       -0.0062
      4 C          63.5690   87.5941   14.9316 C.ar    1  UNL1        0.0630
      5 C          64.0804   88.5989   13.9424 C.ar    1  UNL1        0.0454
      6 C          64.2697   90.0285   14.3551 C.ar    1  UNL1        0.1679
      7 O          64.7812   91.0334   13.3658 O.3     1  UNL1       -0.5029
      8 C          63.3797   86.1645   14.5188 C.ar    1  UNL1        0.2260
      9 C          63.7019   85.7397   13.1168 C.ar    1  UNL1        0.0695
     10 C          63.5126   84.3101   12.7041 C.ar    1  UNL1        0.0150
     11 C          63.8348   83.8853   11.3019 C.ar    1  UNL1        0.0037
     12 C          63.6455   82.4557   10.8892 C.ar    1  UNL1        0.0401
     13 C          63.1340   81.4508   11.8785 C.ar    1  UNL1        0.1726
     14 C          62.8118   81.8756   13.2805 C.ar    1  UNL1        0.1782
     15 C          63.0011   83.3052   13.6933 C.ar    1  UNL1        0.1068
     16 C          62.6790   83.7300   15.0953 C.ar    1  UNL1        0.2929
     17 N          62.8682   85.1596   15.5081 N.ar    1  UNL1       -0.1641
     18 C          62.5460   85.5844   16.9102 C.3     1  UNL1        0.3269
     19 C          62.7353   87.0140   17.3230 C.3     1  UNL1        0.1119
     20 H          64.9824   90.7680   12.4900 H       1  UNL1        0.2923
     21 C          65.5176   92.4182   16.4082 C.3     1  UNL1        0.2526
     22 O          64.1368   91.8829   16.1699 O.3     1  UNL1       -0.4684
     23 O          62.9447   80.0212   11.4658 O.3     1  UNL1       -0.4684
     24 C          62.8862   79.6622   10.0105 C.3     1  UNL1        0.2526
     25 O          62.3004   80.8708   14.2698 O.3     1  UNL1       -0.4682
     26 C          60.8390   80.5353   14.3107 C.3     1  UNL1        0.2526
@<TRIPOS>UNITY_ATOM_ATTR
17 1
charge 1
@<TRIPOS>BOND
     1    21    22    1
     2    22     1    1
     3     1     2   ar
     4     2     3   ar
     5     3     4   ar
     6     4     5   ar
     7     5     6   ar
     8     6     7    1
     9     4     8    1
    10     8     9   ar
    11     9    10   ar
    12    10    11   ar
    13    11    12   ar
    14    12    13   ar
    15    13    23    1
    16    23    24    1
    17    13    14   ar
    18    14    25    1
    19    25    26    1
    20    14    15   ar
    21    15    16   ar
    22    16    17   ar
    23    17    18    1
    24    18    19    1
    25     6     1   ar
    26    17     8   ar
    27    19     3    1
    28    15    10   ar
    29     7    20    1
@<TRIPOS>MOLECULE
*****
 26 29 0 0 0
SMALL
GASTEIGER

@<TRIPOS>ATOM
      1 C          65.0737   92.3547   13.3371 C.ar    1  UNL1        0.1718
      2 C          64.2767   91.8008   12.1935 C.ar    1  UNL1        0.0362
      3 C          63.8905   90.3514   12.1810 C.ar    1  UNL1       -0.0062
      4 C          64.3013   89.4559   13.3120 C.ar    1  UNL1        0.0630
      5 C          65.0983   90.0099   14.4557 C.ar    1  UNL1        0.0454
      6 C          65.4845   91.4592   14.4682 C.ar    1  UNL1        0.1679
      7 O          66.2816   92.0132   15.6119 O.3     1  UNL1       -0.5029
      8 C          63.9151   88.0066   13.2995 C.ar    1  UNL1        0.2260
      9 C          64.3259   87.1111   14.4306 C.ar    1  UNL1        0.0695
     10 C          63.9397   85.6617   14.4180 C.ar    1  UNL1        0.0150
     11 C          64.3506   84.7663   15.5492 C.ar    1  UNL1        0.0037
     12 C          63.9644   83.3169   15.5366 C.ar    1  UNL1        0.0401
     13 C          63.1674   82.7630   14.3929 C.ar    1  UNL1        0.1726
     14 C          62.7566   83.6584   13.2619 C.ar    1  UNL1        0.1782
     15 C          63.1427   85.1078   13.2744 C.ar    1  UNL1        0.1068
     16 C          62.7319   86.0032   12.1433 C.ar    1  UNL1        0.2929
     17 N          63.1181   87.4526   12.1559 N.ar    1  UNL1       -0.1641
     18 C          62.7073   88.3481   11.0247 C.3     1  UNL1        0.3269
     19 C          63.0934   89.7975   11.0373 C.3     1  UNL1        0.1119
     20 H          66.5382   91.4538   16.3185 H       1  UNL1        0.2923
     21 C          66.2188   94.3881   12.1952 C.3     1  UNL1        0.2526
     22 O          65.4599   93.8041   13.3497 O.3     1  UNL1       -0.4684
     23 O          62.7812   81.3136   14.3804 O.3     1  UNL1       -0.4684
     24 C          61.3441   80.9218   14.2027 C.3     1  UNL1        0.2526
     25 O          61.9595   83.1045   12.1182 O.3     1  UNL1       -0.4682
     26 C          62.6513   82.3702   11.0081 C.3     1  UNL1        0.2526
@<TRIPOS>UNITY_ATOM_ATTR
17 1
charge 1
@<TRIPOS>BOND
     1    21    22    1
     2    22     1    1
     3     1     2   ar
     4     2     3   ar
     5     3     4   ar
     6     4     5   ar
     7     5     6   ar
     8     6     7    1
     9     4     8    1
    10     8     9   ar
    11     9    10   ar
    12    10    11   ar
    13    11    12   ar
    14    12    13   ar
    15    13    23    1
    16    23    24    1
    17    13    14   ar
    18    14    25    1
    19    25    26    1
    20    14    15   ar
    21    15    16   ar
    22    16    17   ar
    23    17    18    1
    24    18    19    1
    25     6     1   ar
    26    17     8   ar
    27    19     3    1
    28    15    10   ar
    29     7    20    1
@<TRIPOS>MOLECULE
*****
 26 29 0 0 0
SMALL
GASTEIGER

@<TRIPOS>ATOM
      1 C          62.4494   82.3586   13.0020 C.ar    1  UNL1        0.1718
      2 C          62.0271   83.1621   11.8078 C.ar    1  UNL1        0.0362
      3 C          62.3170   84.6327   11.7527 C.ar    1  UNL1       -0.0062
      4 C          63.0292   85.3000   12.8918 C.ar    1  UNL1        0.0630
      5 C          63.4514   84.4966   14.0860 C.ar    1  UNL1        0.0454
      6 C          63.1615   83.0259   14.1411 C.ar    1  UNL1        0.1679
      7 O          63.5838   82.2224   15.3354 O.3     1  UNL1       -0.5029
      8 C          63.3191   86.7707   12.8367 C.ar    1  UNL1        0.2260
      9 C          64.0313   87.4379   13.9758 C.ar    1  UNL1        0.0695
     10 C          64.3212   88.9086   13.9207 C.ar    1  UNL1        0.0150
     11 C          65.0334   89.5759   15.0599 C.ar    1  UNL1        0.0037
     12 C          65.3233   91.0465   15.0048 C.ar    1  UNL1        0.0401
     13 C          64.9010   91.8500   13.8105 C.ar    1  UNL1        0.1726
     14 C          64.1889   91.1827   12.6714 C.ar    1  UNL1        0.1782
     15 C          63.8989   89.7120   12.7265 C.ar    1  UNL1        0.1068
     16 C          63.1868   89.0448   11.5874 C.ar    1  UNL1        0.2929
     17 N          62.8969   87.5741   11.6425 N.ar    1  UNL1       -0.1641
     18 C          62.1847   86.9069   10.5033 C.3     1  UNL1        0.3269
     19 C          61.8948   85.4362   10.5584 C.3     1  UNL1        0.1119
     20 H          64.0286   82.6393   16.0470 H       1  UNL1        0.2923
     21 C          61.0299   80.3773   13.9017 C.3     1  UNL1        0.2526
     22 O          62.1594   80.8879   13.0571 O.3     1  UNL1       -0.4684
     23 O          65.1909   93.3207   13.7554 O.3     1  UNL1       -0.4684
     24 C          66.5870   93.8190   13.9848 C.3     1  UNL1        0.2526
     25 O          63.7666   91.9862   11.4772 O.3     1  UNL1       -0.4682
     26 C          64.8000   92.5298   10.5355 C.3     1  UNL1        0.2526
@<TRIPOS>UNITY_ATOM_ATTR
17 1
charge 1
@<TRIPOS>BOND
     1    21    22    1
     2    22     1    1
     3     1     2   ar
     4     2     3   ar
     5     3     4   ar
     6     4     5   ar
     7     5     6   ar
     8     6     7    1
     9     4     8    1
    10     8     9   ar
    11     9    10   ar
    12    10    11   ar
    13    11    12   ar
    14    12    13   ar
    15    13    23    1
    16    23    24    1
    17    13    14   ar
    18    14    25    1
    19    25    26    1
    20    14    15   ar
    21    15    16   ar
    22    16    17   ar
    23    17    18    1
    24    18    19    1
    25     6     1   ar
    26    17     8   ar
    27    19     3    1
    28    15    10   ar
    29     7    20    1
@<TRIPOS>MOLECULE
*****
 26 29 0 0 0
SMALL
GASTEIGER

@<TRIPOS>ATOM
      1 C          61.7391   92.6517    2.2087 C.ar    1  UNL1        0.1718
      2 C          62.2593   92.7749    0.8072 C.ar    1  UNL1        0.0362
      3 C          61.3417   93.2066   -0.2982 C.ar    1  UNL1       -0.0062
      4 C          59.9040   93.5150   -0.0020 C.ar    1  UNL1        0.0630
      5 C          59.3838   93.3918    1.3995 C.ar    1  UNL1        0.0454
      6 C          60.3014   92.9601    2.5048 C.ar    1  UNL1        0.1679
      7 O          59.7811   92.8369    3.9063 O.3     1  UNL1       -0.5029
      8 C          58.9864   93.9467   -1.1073 C.ar    1  UNL1        0.2260
      9 C          57.5487   94.2551   -0.8112 C.ar    1  UNL1        0.0695
     10 C          56.6311   94.6868   -1.9165 C.ar    1  UNL1        0.0150
     11 C          55.1933   94.9952   -1.6203 C.ar    1  UNL1        0.0037
     12 C          54.2758   95.4269   -2.7257 C.ar    1  UNL1        0.0401
     13 C          54.7960   95.5501   -4.1272 C.ar    1  UNL1        0.1726
     14 C          56.2338   95.2417   -4.4234 C.ar    1  UNL1        0.1782
     15 C          57.1513   94.8100   -3.3180 C.ar    1  UNL1        0.1068
     16 C          58.5891   94.5016   -3.6142 C.ar    1  UNL1        0.2929
     17 N          59.5066   94.0699   -2.5088 N.ar    1  UNL1       -0.1641
     18 C          60.9444   93.7615   -2.8050 C.3     1  UNL1        0.3269
     19 C          61.8620   93.3298   -1.6997 C.3     1  UNL1        0.1119
     20 H          58.8830   93.0295    4.0913 H       1  UNL1        0.2923
     21 C          63.2800   90.8561    3.2817 C.3     1  UNL1        0.2526
     22 O          62.6566   92.2200    3.3140 O.3     1  UNL1       -0.4684
     23 O          53.8785   95.9818   -5.2326 O.3     1  UNL1       -0.4684
     24 C          52.4617   96.3662   -4.9241 C.3     1  UNL1        0.2526
     25 O          56.7540   95.3649   -5.8248 O.3     1  UNL1       -0.4682
     26 C          56.6106   94.2186   -6.7816 C.3     1  UNL1        0.2526
@<TRIPOS>UNITY_ATOM_ATTR
17 1
charge 1
@<TRIPOS>BOND
     1    21    22    1
     2    22     1    1
     3     1     2   ar
     4     2     3   ar
     5     3     4   ar
     6     4     5   ar
     7     5     6   ar
     8     6     7    1
     9     4     8    1
    10     8     9   ar
    11     9    10   ar
    12    10    11   ar
    13    11    12   ar
    14    12    13   ar
    15    13    23    1
    16    23    24    1
    17    13    14   ar
    18    14    25    1
    19    25    26    1
    20    14    15   ar
    21    15    16   ar
    22    16    17   ar
    23    17    18    1
    24    18    19    1
    25     6     1   ar
    26    17     8   ar
    27    19     3    1
    28    15    10   ar
    29     7    20    1
@<TRIPOS>MOLECULE
*****
 26 29 0 0 0
SMALL
GASTEIGER

@<TRIPOS>ATOM
      1 C          73.0423   81.0098   10.2004 C.ar    1  UNL1        0.1718
      2 C          73.0931   81.1397   11.6939 C.ar    1  UNL1        0.0362
      3 C          72.8451   79.9404   12.5600 C.ar    1  UNL1       -0.0062
      4 C          72.5464   78.6111   11.9326 C.ar    1  UNL1        0.0630
      5 C          72.4956   78.4811   10.4391 C.ar    1  UNL1        0.0454
      6 C          72.7436   79.6805    9.5730 C.ar    1  UNL1        0.1679
      7 O          72.6928   79.5505    8.0795 O.3     1  UNL1       -0.5029
      8 C          72.2985   77.4117   12.7986 C.ar    1  UNL1        0.2260
      9 C          71.9997   76.0824   12.1712 C.ar    1  UNL1        0.0695
     10 C          71.7518   74.8831   13.0373 C.ar    1  UNL1        0.0150
     11 C          71.4530   73.5537   12.4098 C.ar    1  UNL1        0.0037
     12 C          71.2051   72.3543   13.2759 C.ar    1  UNL1        0.0401
     13 C          71.2559   72.4843   14.7694 C.ar    1  UNL1        0.1726
     14 C          71.5546   73.8136   15.3968 C.ar    1  UNL1        0.1782
     15 C          71.8026   75.0130   14.5308 C.ar    1  UNL1        0.1068
     16 C          72.1013   76.3423   15.1582 C.ar    1  UNL1        0.2929
     17 N          72.3492   77.5416   14.2921 N.ar    1  UNL1       -0.1641
     18 C          72.6480   78.8710   14.9196 C.3     1  UNL1        0.3269
     19 C          72.8959   80.0704   14.0535 C.3     1  UNL1        0.1119
     20 H          72.5062   78.7201    7.6876 H       1  UNL1        0.2923
     21 C          72.1331   82.9810    8.7731 C.3     1  UNL1        0.2526
     22 O          73.2903   82.2091    9.3344 O.3     1  UNL1       -0.4684
     23 O          71.0079   71.2850   15.6355 O.3     1  UNL1       -0.4684
     24 C          71.3871   69.9175   15.1493 C.3     1  UNL1        0.2526
     25 O          71.6054   73.9436   16.8903 O.3     1  UNL1       -0.4682
     26 C          72.8628   73.5968   17.6310 C.3     1  UNL1        0.2526
@<TRIPOS>UNITY_ATOM_ATTR
17 1
charge 1
@<TRIPOS>BOND
     1    21    22    1
     2    22     1    1
     3     1     2   ar
     4     2     3   ar
     5     3     4   ar
     6     4     5   ar
     7     5     6   ar
     8     6     7    1
     9     4     8    1
    10     8     9   ar
    11     9    10   ar
    12    10    11   ar
    13    11    12   ar
    14    12    13   ar
    15    13    23    1
    16    23    24    1
    17    13    14   ar
    18    14    25    1
    19    25    26    1
    20    14    15   ar
    21    15    16   ar
    22    16    17   ar
    23    17    18    1
    24    18    19    1
    25     6     1   ar
    26    17     8   ar
    27    19     3    1
    28    15    10   ar
    29     7    20    1
@<TRIPOS>MOLECULE
*****
 26 29 0 0 0
SMALL
GASTEIGER

@<TRIPOS>ATOM
      1 C          59.3065   90.7653    5.6100 C.ar    1  UNL1        0.1718
      2 C          60.7475   90.5801    5.2369 C.ar    1  UNL1        0.0362
      3 C          61.3191   91.3183    4.0629 C.ar    1  UNL1       -0.0062
      4 C          60.4497   92.2416    3.2619 C.ar    1  UNL1        0.0630
      5 C          59.0087   92.4268    3.6350 C.ar    1  UNL1        0.0454
      6 C          58.4371   91.6886    4.8090 C.ar    1  UNL1        0.1679
      7 O          56.9960   91.8738    5.1821 O.3     1  UNL1       -0.5029
      8 C          61.0213   92.9798    2.0879 C.ar    1  UNL1        0.2260
      9 C          60.1519   93.9031    1.2869 C.ar    1  UNL1        0.0695
     10 C          60.7236   94.6413    0.1129 C.ar    1  UNL1        0.0150
     11 C          59.8541   95.5647   -0.6881 C.ar    1  UNL1        0.0037
     12 C          60.4257   96.3028   -1.8621 C.ar    1  UNL1        0.0401
     13 C          61.8668   96.1176   -2.2352 C.ar    1  UNL1        0.1726
     14 C          62.7362   95.1943   -1.4342 C.ar    1  UNL1        0.1782
     15 C          62.1645   94.4561   -0.2602 C.ar    1  UNL1        0.1068
     16 C          63.0339   93.5328    0.5408 C.ar    1  UNL1        0.2929
     17 N          62.4623   92.7946    1.7148 N.ar    1  UNL1       -0.1641
     18 C          63.3318   91.8712    2.5158 C.3     1  UNL1        0.3269
     19 C          62.7602   91.1331    3.6898 C.3     1  UNL1        0.1119
     20 H          56.4530   92.4506    4.6817 H       1  UNL1        0.2923
     21 C          59.3899   88.7681    7.2696 C.3     1  UNL1        0.2526
     22 O          58.7349   90.0271    6.7840 O.3     1  UNL1       -0.4684
     23 O          62.4384   96.8558   -3.4092 O.3     1  UNL1       -0.4684
     24 C          62.6944   96.1320   -4.6979 C.3     1  UNL1        0.2526
     25 O          64.1771   95.0091   -1.8073 O.3     1  UNL1       -0.4682
     26 C          65.2023   96.0081   -1.3588 C.3     1  UNL1        0.2526
@<TRIPOS>UNITY_ATOM_ATTR
17 1
charge 1
@<TRIPOS>BOND
     1    21    22    1
     2    22     1    1
     3     1     2   ar
     4     2     3   ar
     5     3     4   ar
     6     4     5   ar
     7     5     6   ar
     8     6     7    1
     9     4     8    1
    10     8     9   ar
    11     9    10   ar
    12    10    11   ar
    13    11    12   ar
    14    12    13   ar
    15    13    23    1
    16    23    24    1
    17    13    14   ar
    18    14    25    1
    19    25    26    1
    20    14    15   ar
    21    15    16   ar
    22    16    17   ar
    23    17    18    1
    24    18    19    1
    25     6     1   ar
    26    17     8   ar
    27    19     3    1
    28    15    10   ar
    29     7    20    1
@<TRIPOS>MOLECULE
*****
 26 29 0 0 0
SMALL
GASTEIGER

@<TRIPOS>ATOM
      1 C          61.3586   87.0599   10.2643 C.ar    1  UNL1        0.1718
      2 C          61.4903   88.3785    9.5616 C.ar    1  UNL1        0.0362
      3 C          62.3383   89.4638   10.1559 C.ar    1  UNL1       -0.0062
      4 C          63.0546   89.2304   11.4529 C.ar    1  UNL1        0.0630
      5 C          62.9230   87.9118   12.1557 C.ar    1  UNL1        0.0454
      6 C          62.0750   86.8266   11.5614 C.ar    1  UNL1        0.1679
      7 O          61.9433   85.5079   12.2642 O.3     1  UNL1       -0.5029
      8 C          63.9026   90.3156   12.0472 C.ar    1  UNL1        0.2260
      9 C          64.6190   90.0822   13.3442 C.ar    1  UNL1        0.0695
     10 C          65.4670   91.1675   13.9385 C.ar    1  UNL1        0.0150
     11 C          66.1833   90.9340   15.2356 C.ar    1  UNL1        0.0037
     12 C          67.0313   92.0193   15.8299 C.ar    1  UNL1        0.0401
     13 C          67.1630   93.3379   15.1271 C.ar    1  UNL1        0.1726
     14 C          66.4466   93.5713   13.8301 C.ar    1  UNL1        0.1782
     15 C          65.5986   92.4861   13.2358 C.ar    1  UNL1        0.1068
     16 C          64.8823   92.7194   11.9387 C.ar    1  UNL1        0.2929
     17 N          64.0343   91.6342   11.3445 N.ar    1  UNL1       -0.1641
     18 C          63.3179   91.8677   10.0473 C.3     1  UNL1        0.3269
     19 C          62.4699   90.7824    9.4531 C.3     1  UNL1        0.1119
     20 H          62.3908   85.3621   13.0744 H       1  UNL1        0.2923
     21 C          60.1474   86.0185    8.2154 C.3     1  UNL1        0.2526
     22 O          60.5106   85.9747    9.6701 O.3     1  UNL1       -0.4684
     23 O          68.0110   94.4232   15.7214 O.3     1  UNL1       -0.4684
     24 C          69.4407   94.1459   16.0806 C.3     1  UNL1        0.2526
     25 O          66.5783   94.8899   13.1273 O.3     1  UNL1       -0.4682
     26 C          66.5018   94.9530   11.6306 C.3     1  UNL1        0.2526
@<TRIPOS>UNITY_ATOM_ATTR
17 1
charge 1
@<TRIPOS>BOND
     1    21    22    1
     2    22     1    1
     3     1     2   ar
     4     2     3   ar
     5     3     4   ar
     6     4     5   ar
     7     5     6   ar
     8     6     7    1
     9     4     8    1
    10     8     9   ar
    11     9    10   ar
    12    10    11   ar
    13    11    12   ar
    14    12    13   ar
    15    13    23    1
    16    23    24    1
    17    13    14   ar
    18    14    25    1
    19    25    26    1
    20    14    15   ar
    21    15    16   ar
    22    16    17   ar
    23    17    18    1
    24    18    19    1
    25     6     1   ar
    26    17     8   ar
    27    19     3    1
    28    15    10   ar
    29     7    20    1
@<TRIPOS>MOLECULE
*****
 26 29 0 0 0
SMALL
GASTEIGER

@<TRIPOS>ATOM
      1 C          60.4808   92.3818    3.0369 C.ar    1  UNL1        0.1718
      2 C          59.3665   92.8174    2.1321 C.ar    1  UNL1        0.0362
      3 C          59.6659   93.2448    0.7258 C.ar    1  UNL1       -0.0062
      4 C          61.0795   93.2366    0.2243 C.ar    1  UNL1        0.0630
      5 C          62.1938   92.8010    1.1291 C.ar    1  UNL1        0.0454
      6 C          61.8944   92.3736    2.5354 C.ar    1  UNL1        0.1679
      7 O          63.0087   91.9380    3.4402 O.3     1  UNL1       -0.5029
      8 C          61.3789   93.6640   -1.1820 C.ar    1  UNL1        0.2260
      9 C          62.7925   93.6558   -1.6835 C.ar    1  UNL1        0.0695
     10 C          63.0919   94.0832   -3.0898 C.ar    1  UNL1        0.0150
     11 C          64.5056   94.0750   -3.5913 C.ar    1  UNL1        0.0037
     12 C          64.8050   94.5024   -4.9976 C.ar    1  UNL1        0.0401
     13 C          63.6907   94.9380   -5.9024 C.ar    1  UNL1        0.1726
     14 C          62.2771   94.9462   -5.4009 C.ar    1  UNL1        0.1782
     15 C          61.9777   94.5188   -3.9946 C.ar    1  UNL1        0.1068
     16 C          60.5641   94.5270   -3.4931 C.ar    1  UNL1        0.2929
     17 N          60.2647   94.0996   -2.0868 N.ar    1  UNL1       -0.1641
     18 C          58.8510   94.1078   -1.5853 C.3     1  UNL1        0.3269
     19 C          58.5516   93.6804   -0.1790 C.3     1  UNL1        0.1119
     20 H          63.8918   91.9329    3.1269 H       1  UNL1        0.2923
     21 C          58.7722   91.6356    4.8463 C.3     1  UNL1        0.2526
     22 O          60.1814   91.9544    4.4432 O.3     1  UNL1       -0.4684
     23 O          63.9901   95.3654   -7.3087 O.3     1  UNL1       -0.4684
     24 C          64.7894   96.6095   -7.5604 C.3     1  UNL1        0.2526
     25 O          61.1628   95.3817   -6.3057 O.3     1  UNL1       -0.4682
     26 C          60.5497   94.4046   -7.2644 C.3     1  UNL1        0.2526
@<TRIPOS>UNITY_ATOM_ATTR
17 1
charge 1
@<TRIPOS>BOND
     1    21    22    1
     2    22     1    1
     3     1     2   ar
     4     2     3   ar
     5     3     4   ar
     6     4     5   ar
     7     5     6   ar
     8     6     7    1
     9     4     8    1
    10     8     9   ar
    11     9    10   ar
    12    10    11   ar
    13    11    12   ar
    14    12    13   ar
    15    13    23    1
    16    23    24    1
    17    13    14   ar
    18    14    25    1
    19    25    26    1
    20    14    15   ar
    21    15    16   ar
    22    16    17   ar
    23    17    18    1
    24    18    19    1
    25     6     1   ar
    26    17     8   ar
    27    19     3    1
    28    15    10   ar
    29     7    20    1
@<TRIPOS>MOLECULE
*****
 26 29 0 0 0
SMALL
GASTEIGER

@<TRIPOS>ATOM
      1 C          63.0056   81.1012   11.7006 C.ar    1  UNL1        0.1718
      2 C          62.8219   82.1395   10.6337 C.ar    1  UNL1        0.0362
      3 C          62.8876   83.5962   10.9855 C.ar    1  UNL1       -0.0062
      4 C          63.1370   84.0146   12.4042 C.ar    1  UNL1        0.0630
      5 C          63.3207   82.9763   13.4710 C.ar    1  UNL1        0.0454
      6 C          63.2550   81.5196   13.1192 C.ar    1  UNL1        0.1679
      7 O          63.4387   80.4814   14.1862 O.3     1  UNL1       -0.5029
      8 C          63.2027   85.4713   12.7560 C.ar    1  UNL1        0.2260
      9 C          63.4521   85.8897   14.1747 C.ar    1  UNL1        0.0695
     10 C          63.5178   87.3464   14.5265 C.ar    1  UNL1        0.0150
     11 C          63.7672   87.7648   15.9452 C.ar    1  UNL1        0.0037
     12 C          63.8329   89.2214   16.2971 C.ar    1  UNL1        0.0401
     13 C          63.6492   90.2597   15.2301 C.ar    1  UNL1        0.1726
     14 C          63.3998   89.8413   13.8114 C.ar    1  UNL1        0.1782
     15 C          63.3341   88.3846   13.4596 C.ar    1  UNL1        0.1068
     16 C          63.0847   87.9662   12.0410 C.ar    1  UNL1        0.2929
     17 N          63.0190   86.5095   11.6891 N.ar    1  UNL1       -0.1641
     18 C          62.7696   86.0911   10.2704 C.3     1  UNL1        0.3269
     19 C          62.7038   84.6344    9.9186 C.3     1  UNL1        0.1119
     20 H          63.5945   80.7428   15.0724 H       1  UNL1        0.2923
     21 C          62.8443   79.2235    9.9123 C.3     1  UNL1        0.2526
     22 O          62.9399   79.6445   11.3488 O.3     1  UNL1       -0.4684
     23 O          63.7149   91.7164   15.5819 O.3     1  UNL1       -0.4684
     24 C          64.9319   92.2694   16.2625 C.3     1  UNL1        0.2526
     25 O          63.2161   90.8795   12.7446 O.3     1  UNL1       -0.4682
     26 C          64.4064   91.6067   12.1928 C.3     1  UNL1        0.2526
@<TRIPOS>UNITY_ATOM_ATTR
17 1
charge 1
@<TRIPOS>BOND
     1    21    22    1
     2    22     1    1
     3     1     2   ar
     4     2     3   ar
     5     3     4   ar
     6     4     5   ar
     7     5     6   ar
     8     6     7    1
     9     4     8    1
    10     8     9   ar
    11     9    10   ar
    12    10    11   ar
    13    11    12   ar
    14    12    13   ar
    15    13    23    1
    16    23    24    1
    17    13    14   ar
    18    14    25    1
    19    25    26    1
    20    14    15   ar
    21    15    16   ar
    22    16    17   ar
    23    17    18    1
    24    18    19    1
    25     6     1   ar
    26    17     8   ar
    27    19     3    1
    28    15    10   ar
    29     7    20    1
