@<TRIPOS>MOLECULE
*****
 45 51 0 0 0
SMALL
GASTEIGER

@<TRIPOS>ATOM
      1 C          60.0198   88.7368    7.3133 C.2     1  UNL1        0.0633
      2 N          60.3479   87.3125    6.9759 N.2     1  UNL1       -0.2432
      3 C          60.9451   86.6732    8.1944 C.ar    1  UNL1        0.1064
      4 S          61.5169   85.3978    8.7389 S.2     1  UNL1       -0.0722
      5 C          61.9113   85.6388   10.1659 C.ar    1  UNL1        0.0160
      6 C          61.5832   87.0630   10.5034 C.ar    1  UNL1        0.0007
      7 C          60.9860   87.7024    9.2849 C.ar    1  UNL1        0.0071
      8 C          60.4142   88.9777    8.7404 C.3     1  UNL1        0.0659
      9 C          60.5448   92.4808    3.7487 C.3     1  UNL1        0.0310
     10 C          59.6678   91.6154    4.6041 C.ar    1  UNL1       -0.0221
     11 C          58.1761   91.7566    4.5328 C.ar    1  UNL1       -0.0085
     12 C          57.2990   90.8911    5.3883 C.ar    1  UNL1       -0.0221
     13 C          55.8074   91.0323    5.3169 C.3     1  UNL1        0.0310
     14 C          57.9136   89.8846    6.3151 C.ar    1  UNL1       -0.0031
     15 C          59.4053   89.7433    6.3865 C.ar    1  UNL1        0.0133
     16 C          60.2823   90.6087    5.5310 C.ar    1  UNL1       -0.0031
     17 C          62.5259   84.6322   11.0928 C.3     1  UNL1        0.0934
     18 C          61.6308   85.1051   12.1998 C.3     1  UNL1        0.0140
     19 C          63.4209   84.1594    9.9859 C.3     1  UNL1        0.0140
     20 C          63.1404   83.6256   12.0197 C.2     1  UNL1        0.2289
     21 O          63.1109   82.1675   11.6696 O.2     1  UNL1       -0.2745
     22 N          63.7846   84.0773   13.2969 N.am    1  UNL1       -0.2825
     23 C          63.8900   85.4941   13.7782 C.3     1  UNL1        0.0754
     24 C          64.6070   85.4839   15.0956 C.3     1  UNL1        0.0215
     25 C          64.9448   84.0609   15.4286 C.3     1  UNL1        0.0215
     26 C          64.4365   83.1916   14.3169 C.3     1  UNL1        0.0754
     27 C          63.7195   83.2017   12.9994 C.3     1  UNL1        0.0215
     28 C          63.3818   84.6248   12.6664 C.3     1  UNL1        0.0215
     29 C          60.2633   90.2675    9.4911 C.3     1  UNL1        0.0277
     30 C          60.7376   90.3691   10.9106 C.3     1  UNL1        0.0729
     31 N          62.1187   90.8745   11.2055 N.3     1  UNL1       -0.2703
     32 C          62.9619   91.4404   10.1016 C.3     1  UNL1        0.0897
     33 C          64.3430   91.9458   10.3965 C.3     1  UNL1        0.0900
     34 N          64.8811   91.8852   11.7953 N.3     1  UNL1       -0.2626
     35 C          64.0379   91.3193   12.8994 C.3     1  UNL1        0.0900
     36 C          62.6567   90.8139   12.6045 C.3     1  UNL1        0.0897
     37 C          66.2622   92.3906   12.0902 C.3     1  UNL1        0.1587
     38 C          67.1456   92.8557   10.9707 C.2     1  UNL1        0.2422
     39 O          68.2730   91.9880   10.4951 O.2     1  UNL1       -0.2734
     40 N          66.9017   94.1883   10.3269 N.am    1  UNL1       -0.2733
     41 C          67.7850   94.6533    9.2074 C.3     1  UNL1        0.1255
     42 C          67.5411   95.9860    8.5635 C.3     1  UNL1        0.1636
     43 O          66.4137   96.8536    9.0392 O.3     1  UNL1       -0.3501
     44 C          65.5304   96.3886   10.1587 C.3     1  UNL1        0.1636
     45 C          65.7743   95.0559   10.8025 C.3     1  UNL1        0.1255
@<TRIPOS>BOND
     1     9    10    1
     2    10    11   ar
     3    11    12   ar
     4    12    13    1
     5    12    14   ar
     6    14    15   ar
     7    15     1    1
     8     1     2    2
     9     2     3    1
    10     3     4   ar
    11     4     5   ar
    12     5    17    1
    13    17    18    1
    14    17    19    1
    15    17    20    1
    16    20    21    2
    17    20    22   am
    18    22    23    1
    19    23    24    1
    20    24    25    1
    21    25    26    1
    22    26    27    1
    23    27    28    1
    24     5     6   ar
    25     6     7   ar
    26     7     8    1
    27     8    29    1
    28    29    30    1
    29    30    31    1
    30    31    32    1
    31    32    33    1
    32    33    34    1
    33    34    37    1
    34    37    38    1
    35    38    39    2
    36    38    40   am
    37    40    41    1
    38    41    42    1
    39    42    43    1
    40    43    44    1
    41    44    45    1
    42    34    35    1
    43    35    36    1
    44    15    16   ar
    45    16    10   ar
    46     8     1    1
    47    36    31    1
    48     7     3   ar
    49    45    40    1
    50    26    22    1
    51    28    23    1
@<TRIPOS>MOLECULE
*****
 45 51 0 0 0
SMALL
GASTEIGER

@<TRIPOS>ATOM
      1 C          59.9163   88.8884    7.1643 C.2     1  UNL1        0.0633
      2 N          60.2327   87.4592    6.8365 N.2     1  UNL1       -0.2432
      3 C          60.8316   86.8253    8.0569 C.ar    1  UNL1        0.1064
      4 S          61.3973   85.5503    8.6086 S.2     1  UNL1       -0.0722
      5 C          61.8008   85.7997   10.0316 C.ar    1  UNL1        0.0160
      6 C          61.4845   87.2289   10.3594 C.ar    1  UNL1        0.0007
      7 C          60.8855   87.8627    9.1390 C.ar    1  UNL1        0.0071
      8 C          60.3198   89.1378    8.5874 C.3     1  UNL1        0.0659
      9 C          55.7084   91.1651    5.1371 C.3     1  UNL1        0.0310
     10 C          57.2000   91.0303    5.2191 C.ar    1  UNL1       -0.0221
     11 C          58.0794   91.8991    4.3694 C.ar    1  UNL1       -0.0085
     12 C          59.5712   91.7642    4.4514 C.ar    1  UNL1       -0.0221
     13 C          60.4506   92.6331    3.6017 C.3     1  UNL1        0.0310
     14 C          60.1834   90.7607    5.3830 C.ar    1  UNL1       -0.0031
     15 C          59.3041   89.8919    6.2327 C.ar    1  UNL1        0.0133
     16 C          57.8124   90.0267    6.1507 C.ar    1  UNL1       -0.0031
     17 C          62.4131   84.7962   10.9632 C.3     1  UNL1        0.0934
     18 C          63.2238   84.2394    9.8307 C.3     1  UNL1        0.0140
     19 C          61.6023   85.3529   12.0958 C.3     1  UNL1        0.0140
     20 C          63.0254   83.7926   11.8949 C.2     1  UNL1        0.2289
     21 O          62.9507   82.3291   11.5751 O.2     1  UNL1       -0.2745
     22 N          63.7124   84.2527   13.1465 N.am    1  UNL1       -0.2825
     23 C          63.8651   85.6755   13.5964 C.3     1  UNL1        0.0754
     24 C          64.6144   85.6728   14.8958 C.3     1  UNL1        0.0215
     25 C          64.9248   84.2485   15.2491 C.3     1  UNL1        0.0215
     26 C          64.3674   83.3708   14.1679 C.3     1  UNL1        0.0754
     27 C          63.6180   83.3733   12.8684 C.3     1  UNL1        0.0215
     28 C          63.3077   84.7977   12.5152 C.3     1  UNL1        0.0215
     29 C          60.1819   90.4345    9.3286 C.3     1  UNL1        0.0277
     30 C          60.0767   90.4356   10.8250 C.3     1  UNL1        0.0729
     31 N          61.3193   90.3931   11.6642 N.3     1  UNL1       -0.2703
     32 C          62.5799   91.0393   11.1709 C.3     1  UNL1        0.0897
     33 C          63.8224   90.9969   12.0101 C.3     1  UNL1        0.0900
     34 N          63.8044   90.3082   13.3425 N.3     1  UNL1       -0.2626
     35 C          62.5438   89.6620   13.8358 C.3     1  UNL1        0.0900
     36 C          61.3012   89.7045   12.9967 C.3     1  UNL1        0.0897
     37 C          65.0470   90.2658   14.1817 C.3     1  UNL1        0.1587
     38 C          65.3632   91.3996   15.1114 C.2     1  UNL1        0.2422
     39 O          64.3273   91.8852   16.0815 O.2     1  UNL1       -0.2734
     40 N          66.7153   92.0479   15.0710 N.am    1  UNL1       -0.2733
     41 C          67.0315   93.1817   16.0007 C.3     1  UNL1        0.1255
     42 C          68.3836   93.8300   15.9603 C.3     1  UNL1        0.1636
     43 O          69.4194   93.3444   14.9902 O.3     1  UNL1       -0.3501
     44 C          69.1032   92.2106   14.0605 C.3     1  UNL1        0.1636
     45 C          67.7511   91.5623   14.1009 C.3     1  UNL1        0.1255
@<TRIPOS>BOND
     1     9    10    1
     2    10    11   ar
     3    11    12   ar
     4    12    13    1
     5    12    14   ar
     6    14    15   ar
     7    15     1    1
     8     1     2    2
     9     2     3    1
    10     3     4   ar
    11     4     5   ar
    12     5    17    1
    13    17    18    1
    14    17    19    1
    15    17    20    1
    16    20    21    2
    17    20    22   am
    18    22    23    1
    19    23    24    1
    20    24    25    1
    21    25    26    1
    22    26    27    1
    23    27    28    1
    24     5     6   ar
    25     6     7   ar
    26     7     8    1
    27     8    29    1
    28    29    30    1
    29    30    31    1
    30    31    32    1
    31    32    33    1
    32    33    34    1
    33    34    37    1
    34    37    38    1
    35    38    39    2
    36    38    40   am
    37    40    41    1
    38    41    42    1
    39    42    43    1
    40    43    44    1
    41    44    45    1
    42    34    35    1
    43    35    36    1
    44    15    16   ar
    45    16    10   ar
    46     8     1    1
    47    36    31    1
    48     7     3   ar
    49    45    40    1
    50    26    22    1
    51    28    23    1
@<TRIPOS>MOLECULE
*****
 45 51 0 0 0
SMALL
GASTEIGER

@<TRIPOS>ATOM
      1 C          60.3212   88.5064    7.7406 C.2     1  UNL1        0.0633
      2 N          60.4887   87.0257    7.5691 N.2     1  UNL1       -0.2432
      3 C          61.2193   86.4998    8.7690 C.ar    1  UNL1        0.1064
      4 S          61.7743   85.2596    9.4046 S.2     1  UNL1       -0.0722
      5 C          62.4013   85.6489   10.7104 C.ar    1  UNL1        0.0160
      6 C          62.2338   87.1296   10.8820 C.ar    1  UNL1        0.0007
      7 C          61.5033   87.6555    9.6821 C.ar    1  UNL1        0.0071
      8 C          60.9483   88.8957    9.0465 C.3     1  UNL1        0.0659
      9 C          55.9749   90.4362    5.6465 C.3     1  UNL1        0.0310
     10 C          57.4722   90.3998    5.7286 C.ar    1  UNL1       -0.0221
     11 C          58.2936   91.2918    4.8457 C.ar    1  UNL1       -0.0085
     12 C          59.7910   91.2553    4.9278 C.ar    1  UNL1       -0.0221
     13 C          60.6124   92.1474    4.0448 C.3     1  UNL1        0.0310
     14 C          60.4668   90.3269    5.8927 C.ar    1  UNL1       -0.0031
     15 C          59.6454   89.4348    6.7757 C.ar    1  UNL1        0.0133
     16 C          58.1481   89.4713    6.6936 C.ar    1  UNL1       -0.0031
     17 C          63.0772   84.7204   11.6754 C.3     1  UNL1        0.0934
     18 C          62.4251   85.4364   12.8210 C.3     1  UNL1        0.0140
     19 C          63.7292   84.0045   10.5299 C.3     1  UNL1        0.0140
     20 C          63.7530   83.7920   12.6404 C.2     1  UNL1        0.2289
     21 O          65.0007   84.2265   13.3506 O.2     1  UNL1       -0.2745
     22 N          63.1812   82.4288   12.8952 N.am    1  UNL1       -0.2825
     23 C          61.9466   81.8582   12.2626 C.3     1  UNL1        0.0754
     24 C          61.7459   80.4738   12.8038 C.3     1  UNL1        0.0215
     25 C          62.8564   80.1886   13.7709 C.3     1  UNL1        0.0215
     26 C          63.7435   81.3969   13.8274 C.3     1  UNL1        0.0754
     27 C          63.9442   82.7815   13.2862 C.3     1  UNL1        0.0215
     28 C          62.8336   83.0665   12.3191 C.3     1  UNL1        0.0215
     29 C          61.0095   90.2817    9.6167 C.3     1  UNL1        0.0277
     30 C          62.3376   90.9111    9.9171 C.3     1  UNL1        0.0729
     31 N          62.8753   90.8957   11.3173 N.3     1  UNL1       -0.2703
     32 C          62.2054   90.0618   12.3688 C.3     1  UNL1        0.0897
     33 C          62.7431   90.0463   13.7690 C.3     1  UNL1        0.0900
     34 N          63.9508   90.8648   14.1177 N.3     1  UNL1       -0.2626
     35 C          64.6208   91.6987   13.0661 C.3     1  UNL1        0.0900
     36 C          64.0831   91.7142   11.6659 C.3     1  UNL1        0.0897
     37 C          64.4885   90.8494   15.5179 C.3     1  UNL1        0.1587
     38 C          65.2497   92.0308   16.0421 C.2     1  UNL1        0.2422
     39 O          64.6265   92.9288   17.0692 O.2     1  UNL1       -0.2734
     40 N          66.6342   92.3142   15.5391 N.am    1  UNL1       -0.2733
     41 C          67.3954   93.4956   16.0632 C.3     1  UNL1        0.1255
     42 C          68.7798   93.7789   15.5603 C.3     1  UNL1        0.1636
     43 O          69.4031   92.8809   14.5331 O.3     1  UNL1       -0.3501
     44 C          68.6419   91.6995   14.0090 C.3     1  UNL1        0.1636
     45 C          67.2574   91.4161   14.5120 C.3     1  UNL1        0.1255
@<TRIPOS>BOND
     1     9    10    1
     2    10    11   ar
     3    11    12   ar
     4    12    13    1
     5    12    14   ar
     6    14    15   ar
     7    15     1    1
     8     1     2    2
     9     2     3    1
    10     3     4   ar
    11     4     5   ar
    12     5    17    1
    13    17    18    1
    14    17    19    1
    15    17    20    1
    16    20    21    2
    17    20    22   am
    18    22    23    1
    19    23    24    1
    20    24    25    1
    21    25    26    1
    22    26    27    1
    23    27    28    1
    24     5     6   ar
    25     6     7   ar
    26     7     8    1
    27     8    29    1
    28    29    30    1
    29    30    31    1
    30    31    32    1
    31    32    33    1
    32    33    34    1
    33    34    37    1
    34    37    38    1
    35    38    39    2
    36    38    40   am
    37    40    41    1
    38    41    42    1
    39    42    43    1
    40    43    44    1
    41    44    45    1
    42    34    35    1
    43    35    36    1
    44    15    16   ar
    45    16    10   ar
    46     8     1    1
    47    36    31    1
    48     7     3   ar
    49    45    40    1
    50    26    22    1
    51    28    23    1
@<TRIPOS>MOLECULE
*****
 45 51 0 0 0
SMALL
GASTEIGER

@<TRIPOS>ATOM
      1 C          64.3075   90.5321   13.4655 C.2     1  UNL1        0.0633
      2 N          63.6300   91.0909   12.2495 N.2     1  UNL1       -0.2432
      3 C          62.9390   89.9619   11.5439 C.ar    1  UNL1        0.1064
      4 S          62.0932   89.6095   10.3563 S.2     1  UNL1       -0.0722
      5 C          61.8209   88.1351   10.4023 C.ar    1  UNL1        0.0160
      6 C          62.4984   87.5763   11.6183 C.ar    1  UNL1        0.0007
      7 C          63.1894   88.7053   12.3239 C.ar    1  UNL1        0.0071
      8 C          64.0352   89.0577   13.5115 C.3     1  UNL1        0.0659
      9 C          64.6406   93.0864   17.9782 C.3     1  UNL1        0.0310
     10 C          65.2820   92.5881   16.7172 C.ar    1  UNL1       -0.0221
     11 C          66.7313   92.8686   16.4515 C.ar    1  UNL1       -0.0085
     12 C          67.3728   92.3702   15.1904 C.ar    1  UNL1       -0.0221
     13 C          68.8222   92.6507   14.9247 C.3     1  UNL1        0.0310
     14 C          66.5649   91.5914   14.1951 C.ar    1  UNL1       -0.0031
     15 C          65.1154   91.3109   14.4608 C.ar    1  UNL1        0.0133
     16 C          64.4740   91.8092   15.7218 C.ar    1  UNL1       -0.0031
     17 C          61.0129   87.3563    9.4070 C.3     1  UNL1        0.0934
     18 C          61.2642   86.0996   10.1864 C.3     1  UNL1        0.0140
     19 C          60.7617   88.6130    8.6275 C.3     1  UNL1        0.0140
     20 C          60.2050   86.5774    8.4117 C.2     1  UNL1        0.2289
     21 O          58.7159   86.7491    8.3557 O.2     1  UNL1       -0.2745
     22 N          60.8861   85.6268    7.4722 N.am    1  UNL1       -0.2825
     23 C          62.3594   85.3517    7.4111 C.3     1  UNL1        0.0754
     24 C          62.5974   84.3393    6.3302 C.3     1  UNL1        0.0215
     25 C          61.2713   83.9888    5.7232 C.3     1  UNL1        0.0215
     26 C          60.2136   84.7845    6.4291 C.3     1  UNL1        0.0754
     27 C          59.9756   85.7969    7.5101 C.3     1  UNL1        0.0215
     28 C          61.3018   86.1474    8.1170 C.3     1  UNL1        0.0215
     29 C          64.5230   88.1033   14.5609 C.3     1  UNL1        0.0277
     30 C          63.5385   87.3334   15.3904 C.3     1  UNL1        0.0729
     31 N          63.4685   85.8393   15.2768 N.3     1  UNL1       -0.2703
     32 C          62.1548   85.1351   15.4447 C.3     1  UNL1        0.0897
     33 C          62.0849   83.6410   15.3311 C.3     1  UNL1        0.0900
     34 N          63.3286   82.8512   15.0496 N.3     1  UNL1       -0.2626
     35 C          64.6424   83.5554   14.8817 C.3     1  UNL1        0.0900
     36 C          64.7123   85.0495   14.9953 C.3     1  UNL1        0.0897
     37 C          63.2586   81.3571   14.9360 C.3     1  UNL1        0.1587
     38 C          62.8181   80.7225   13.6503 C.2     1  UNL1        0.2422
     39 O          61.8781   79.5539   13.6743 O.2     1  UNL1       -0.2734
     40 N          63.3175   81.2566   12.3406 N.am    1  UNL1       -0.2733
     41 C          62.8770   80.6220   11.0549 C.3     1  UNL1        0.1255
     42 C          63.3765   81.1560    9.7451 C.3     1  UNL1        0.1636
     43 O          64.3165   82.3246    9.7212 O.3     1  UNL1       -0.3501
     44 C          64.7570   82.9592   11.0069 C.3     1  UNL1        0.1636
     45 C          64.2575   82.4252   12.3166 C.3     1  UNL1        0.1255
@<TRIPOS>BOND
     1     9    10    1
     2    10    11   ar
     3    11    12   ar
     4    12    13    1
     5    12    14   ar
     6    14    15   ar
     7    15     1    1
     8     1     2    2
     9     2     3    1
    10     3     4   ar
    11     4     5   ar
    12     5    17    1
    13    17    18    1
    14    17    19    1
    15    17    20    1
    16    20    21    2
    17    20    22   am
    18    22    23    1
    19    23    24    1
    20    24    25    1
    21    25    26    1
    22    26    27    1
    23    27    28    1
    24     5     6   ar
    25     6     7   ar
    26     7     8    1
    27     8    29    1
    28    29    30    1
    29    30    31    1
    30    31    32    1
    31    32    33    1
    32    33    34    1
    33    34    37    1
    34    37    38    1
    35    38    39    2
    36    38    40   am
    37    40    41    1
    38    41    42    1
    39    42    43    1
    40    43    44    1
    41    44    45    1
    42    34    35    1
    43    35    36    1
    44    15    16   ar
    45    16    10   ar
    46     8     1    1
    47    36    31    1
    48     7     3   ar
    49    45    40    1
    50    26    22    1
    51    28    23    1
@<TRIPOS>MOLECULE
*****
 45 51 0 0 0
SMALL
GASTEIGER

@<TRIPOS>ATOM
      1 C          60.2965   88.3801    7.7850 C.2     1  UNL1        0.0633
      2 N          60.7323   86.9796    7.4709 N.2     1  UNL1       -0.2432
      3 C          61.3824   86.4104    8.6970 C.ar    1  UNL1        0.1064
      4 S          62.0536   85.1930    9.2606 S.2     1  UNL1       -0.0722
      5 C          62.4344   85.4894   10.6809 C.ar    1  UNL1        0.0160
      6 C          61.9986   86.8899   10.9951 C.ar    1  UNL1        0.0007
      7 C          61.3485   87.4591    9.7690 C.ar    1  UNL1        0.0071
      8 C          60.6773   88.6764    9.2054 C.3     1  UNL1        0.0659
      9 C          55.9108   90.2959    5.7613 C.3     1  UNL1        0.0310
     10 C          57.4090   90.2772    5.8323 C.ar    1  UNL1       -0.0221
     11 C          58.2126   91.1978    4.9624 C.ar    1  UNL1       -0.0085
     12 C          59.7109   91.1791    5.0333 C.ar    1  UNL1       -0.0221
     13 C          60.5145   92.0998    4.1634 C.3     1  UNL1        0.0310
     14 C          60.4055   90.2399    5.9742 C.ar    1  UNL1       -0.0031
     15 C          59.6019   89.3193    6.8442 C.ar    1  UNL1        0.0133
     16 C          58.1037   89.3380    6.7732 C.ar    1  UNL1       -0.0031
     17 C          63.1290   84.5501   11.6218 C.3     1  UNL1        0.0934
     18 C          63.6999   83.8021   10.4537 C.3     1  UNL1        0.0140
     19 C          62.5581   85.2982   12.7899 C.3     1  UNL1        0.0140
     20 C          63.8236   83.6109   12.5627 C.2     1  UNL1        0.2289
     21 O          65.1333   84.0010   13.1810 O.2     1  UNL1       -0.2745
     22 N          63.2084   82.2814   12.8854 N.am    1  UNL1       -0.2825
     23 C          61.9106   81.7564   12.3468 C.3     1  UNL1        0.0754
     24 C          61.6832   80.3941   12.9318 C.3     1  UNL1        0.0215
     25 C          62.8404   80.0770   13.8320 C.3     1  UNL1        0.0215
     26 C          63.7831   81.2435   13.8033 C.3     1  UNL1        0.0754
     27 C          64.0105   82.6059   13.2183 C.3     1  UNL1        0.0215
     28 C          62.8533   82.9228   12.3181 C.3     1  UNL1        0.0215
     29 C          60.4304   89.9641    9.9341 C.3     1  UNL1        0.0277
     30 C          61.0914   90.2159   11.2569 C.3     1  UNL1        0.0729
     31 N          62.4267   90.8971   11.3104 N.3     1  UNL1       -0.2703
     32 C          63.0064   91.5098   10.0700 C.3     1  UNL1        0.0897
     33 C          64.3417   92.1909   10.1234 C.3     1  UNL1        0.0900
     34 N          65.0974   92.2595   11.4173 N.3     1  UNL1       -0.2626
     35 C          64.5178   91.6468   12.6578 C.3     1  UNL1        0.0900
     36 C          63.1825   90.9657   12.6043 C.3     1  UNL1        0.0897
     37 C          66.4327   92.9407   11.4708 C.3     1  UNL1        0.1587
     38 C          67.5341   92.3672   12.3123 C.2     1  UNL1        0.2422
     39 O          68.7063   91.6977   11.6585 O.2     1  UNL1       -0.2734
     40 N          67.4631   92.4633   13.8075 N.am    1  UNL1       -0.2733
     41 C          68.5645   91.8898   14.6490 C.3     1  UNL1        0.1255
     42 C          68.4935   91.9859   16.1442 C.3     1  UNL1        0.1636
     43 O          67.3213   92.6555   16.7980 O.3     1  UNL1       -0.3501
     44 C          66.2199   93.2289   15.9565 C.3     1  UNL1        0.1636
     45 C          66.2909   93.1329   14.4613 C.3     1  UNL1        0.1255
@<TRIPOS>BOND
     1     9    10    1
     2    10    11   ar
     3    11    12   ar
     4    12    13    1
     5    12    14   ar
     6    14    15   ar
     7    15     1    1
     8     1     2    2
     9     2     3    1
    10     3     4   ar
    11     4     5   ar
    12     5    17    1
    13    17    18    1
    14    17    19    1
    15    17    20    1
    16    20    21    2
    17    20    22   am
    18    22    23    1
    19    23    24    1
    20    24    25    1
    21    25    26    1
    22    26    27    1
    23    27    28    1
    24     5     6   ar
    25     6     7   ar
    26     7     8    1
    27     8    29    1
    28    29    30    1
    29    30    31    1
    30    31    32    1
    31    32    33    1
    32    33    34    1
    33    34    37    1
    34    37    38    1
    35    38    39    2
    36    38    40   am
    37    40    41    1
    38    41    42    1
    39    42    43    1
    40    43    44    1
    41    44    45    1
    42    34    35    1
    43    35    36    1
    44    15    16   ar
    45    16    10   ar
    46     8     1    1
    47    36    31    1
    48     7     3   ar
    49    45    40    1
    50    26    22    1
    51    28    23    1
@<TRIPOS>MOLECULE
*****
 45 51 0 0 0
SMALL
GASTEIGER

@<TRIPOS>ATOM
      1 C          64.3483   88.3927   14.1557 C.2     1  UNL1        0.0633
      2 N          64.7833   87.3013   15.0883 N.2     1  UNL1       -0.2432
      3 C          64.2670   85.9994   14.5513 C.ar    1  UNL1        0.1064
      4 S          64.2168   84.5203   14.7958 S.2     1  UNL1       -0.0722
      5 C          63.4316   83.8929   13.6824 C.ar    1  UNL1        0.0160
      6 C          62.9965   84.9842   12.7497 C.ar    1  UNL1        0.0007
      7 C          63.5129   86.2861   13.2867 C.ar    1  UNL1        0.0071
      8 C          63.5631   87.7652   13.0422 C.3     1  UNL1        0.0659
      9 C          64.6806   92.6269   17.1492 C.3     1  UNL1        0.0310
     10 C          64.8123   91.9718   15.8063 C.ar    1  UNL1       -0.0221
     11 C          65.2420   92.7788   14.6171 C.ar    1  UNL1       -0.0085
     12 C          65.3737   92.1237   13.2741 C.ar    1  UNL1       -0.0221
     13 C          65.8034   92.9308   12.0849 C.3     1  UNL1        0.0310
     14 C          65.0759   90.6617   13.1203 C.ar    1  UNL1       -0.0031
     15 C          64.6462   89.8547   14.3095 C.ar    1  UNL1        0.0133
     16 C          64.5144   90.5097   15.6524 C.ar    1  UNL1       -0.0031
     17 C          63.1337   82.4308   13.5285 C.3     1  UNL1        0.0934
     18 C          61.7758   82.6443   14.1291 C.3     1  UNL1        0.0140
     19 C          64.4915   82.2174   12.9280 C.3     1  UNL1        0.0140
     20 C          62.8358   80.9688   13.3747 C.2     1  UNL1        0.2289
     21 O          62.5582   80.1284   14.5857 O.2     1  UNL1       -0.2745
     22 N          62.8155   80.3470   12.0097 N.am    1  UNL1       -0.2825
     23 C          63.0723   81.0570   10.7136 C.3     1  UNL1        0.0754
     24 C          62.9504   80.0550    9.6041 C.3     1  UNL1        0.0215
     25 C          62.6181   78.7257   10.2145 C.3     1  UNL1        0.0215
     26 C          62.5347   78.9062   11.7012 C.3     1  UNL1        0.0754
     27 C          62.6567   79.9083   12.8108 C.3     1  UNL1        0.0215
     28 C          62.9890   81.2375   12.2004 C.3     1  UNL1        0.0215
     29 C          62.9380   88.4896   11.8870 C.3     1  UNL1        0.0277
     30 C          61.4553   88.4181   11.6707 C.3     1  UNL1        0.0729
     31 N          60.8918   88.5541   10.2872 N.3     1  UNL1       -0.2703
     32 C          60.6273   89.9153    9.7156 C.3     1  UNL1        0.0897
     33 C          60.0638   90.0513    8.3321 C.3     1  UNL1        0.0900
     34 N          59.7649   88.8259    7.5203 N.3     1  UNL1       -0.2626
     35 C          60.0295   87.4645    8.0919 C.3     1  UNL1        0.0900
     36 C          60.5929   87.3286    9.4754 C.3     1  UNL1        0.0897
     37 C          59.2014   88.9618    6.1368 C.3     1  UNL1        0.1587
     38 C          58.7560   90.3041    5.6369 C.2     1  UNL1        0.2422
     39 O          57.3888   90.8165    5.9807 O.2     1  UNL1       -0.2734
     40 N          59.6777   91.1339    4.7933 N.am    1  UNL1       -0.2733
     41 C          59.2322   92.4762    4.2934 C.3     1  UNL1        0.1255
     42 C          60.1539   93.3060    3.4497 C.3     1  UNL1        0.1636
     43 O          61.5211   92.7936    3.1059 O.3     1  UNL1       -0.3501
     44 C          61.9666   91.4514    3.6058 C.3     1  UNL1        0.1636
     45 C          61.0449   90.6215    4.4495 C.3     1  UNL1        0.1255
@<TRIPOS>BOND
     1     9    10    1
     2    10    11   ar
     3    11    12   ar
     4    12    13    1
     5    12    14   ar
     6    14    15   ar
     7    15     1    1
     8     1     2    2
     9     2     3    1
    10     3     4   ar
    11     4     5   ar
    12     5    17    1
    13    17    18    1
    14    17    19    1
    15    17    20    1
    16    20    21    2
    17    20    22   am
    18    22    23    1
    19    23    24    1
    20    24    25    1
    21    25    26    1
    22    26    27    1
    23    27    28    1
    24     5     6   ar
    25     6     7   ar
    26     7     8    1
    27     8    29    1
    28    29    30    1
    29    30    31    1
    30    31    32    1
    31    32    33    1
    32    33    34    1
    33    34    37    1
    34    37    38    1
    35    38    39    2
    36    38    40   am
    37    40    41    1
    38    41    42    1
    39    42    43    1
    40    43    44    1
    41    44    45    1
    42    34    35    1
    43    35    36    1
    44    15    16   ar
    45    16    10   ar
    46     8     1    1
    47    36    31    1
    48     7     3   ar
    49    45    40    1
    50    26    22    1
    51    28    23    1
@<TRIPOS>MOLECULE
*****
 45 51 0 0 0
SMALL
GASTEIGER

@<TRIPOS>ATOM
      1 C          55.7532   95.1816   -2.7417 C.2     1  UNL1        0.0633
      2 N          55.8140   94.7089   -1.3194 N.2     1  UNL1       -0.2432
      3 C          57.2459   94.4035   -0.9932 C.ar    1  UNL1        0.1064
      4 S          58.1684   93.9226    0.0874 S.2     1  UNL1       -0.0722
      5 C          59.5627   93.9093   -0.4654 C.ar    1  UNL1        0.0160
      6 C          59.5020   94.3820   -1.8877 C.ar    1  UNL1        0.0007
      7 C          58.0701   94.6874   -2.2139 C.ar    1  UNL1        0.0071
      8 C          57.1476   95.1683   -3.2945 C.3     1  UNL1        0.0659
      9 C          53.3135   96.2027   -7.2144 C.3     1  UNL1        0.0310
     10 C          53.2956   96.1055   -5.7177 C.ar    1  UNL1       -0.0221
     11 C          52.0399   96.4217   -4.9606 C.ar    1  UNL1       -0.0085
     12 C          52.0220   96.3245   -3.4638 C.ar    1  UNL1       -0.0221
     13 C          50.7662   96.6407   -2.7066 C.3     1  UNL1        0.0310
     14 C          53.2597   95.9111   -2.7242 C.ar    1  UNL1       -0.0031
     15 C          54.5155   95.5949   -3.4813 C.ar    1  UNL1        0.0133
     16 C          54.5334   95.6921   -4.9780 C.ar    1  UNL1       -0.0031
     17 C          60.8005   93.4960    0.2742 C.3     1  UNL1        0.0934
     18 C          60.6001   94.6253    1.2409 C.3     1  UNL1        0.0140
     19 C          61.0010   92.3666   -0.6925 C.3     1  UNL1        0.0140
     20 C          62.0383   93.0826    1.0138 C.2     1  UNL1        0.2289
     21 O          61.9575   92.0363    2.0855 O.2     1  UNL1       -0.2745
     22 N          63.3571   93.7156    0.6816 N.am    1  UNL1       -0.2825
     23 C          63.5918   94.7695   -0.3597 C.3     1  UNL1        0.0754
     24 C          65.0524   95.1110   -0.3524 C.3     1  UNL1        0.0215
     25 C          65.7204   94.2683    0.6933 C.3     1  UNL1        0.0215
     26 C          64.6726   93.4059    1.3324 C.3     1  UNL1        0.0754
     27 C          63.2120   93.0643    1.3252 C.3     1  UNL1        0.0215
     28 C          62.5441   93.9070    0.2794 C.3     1  UNL1        0.0215
     29 C          57.5490   95.5661   -4.6840 C.3     1  UNL1        0.0277
     30 C          58.2798   96.8559   -4.9134 C.3     1  UNL1        0.0729
     31 N          59.6631   96.8413   -5.4931 N.3     1  UNL1       -0.2703
     32 C          60.8568   96.8285   -4.5849 C.3     1  UNL1        0.0897
     33 C          62.2402   96.8139   -5.1647 C.3     1  UNL1        0.0900
     34 N          62.4298   96.8121   -6.6526 N.3     1  UNL1       -0.2626
     35 C          61.2361   96.8249   -7.5609 C.3     1  UNL1        0.0900
     36 C          59.8527   96.8395   -6.9811 C.3     1  UNL1        0.0897
     37 C          63.8132   96.7975   -7.2323 C.3     1  UNL1        0.1587
     38 C          64.5620   95.5034   -7.3536 C.2     1  UNL1        0.2422
     39 O          63.8112   94.2147   -7.5130 O.2     1  UNL1       -0.2734
     40 N          66.0615   95.4981   -7.3154 N.am    1  UNL1       -0.2733
     41 C          66.8102   94.2041   -7.4367 C.3     1  UNL1        0.1255
     42 C          68.3097   94.1988   -7.3985 C.3     1  UNL1        0.1636
     43 O          69.0605   95.4875   -7.2391 O.3     1  UNL1       -0.3501
     44 C          68.3117   96.7816   -7.1178 C.3     1  UNL1        0.1636
     45 C          66.8122   96.7869   -7.1560 C.3     1  UNL1        0.1255
@<TRIPOS>BOND
     1     9    10    1
     2    10    11   ar
     3    11    12   ar
     4    12    13    1
     5    12    14   ar
     6    14    15   ar
     7    15     1    1
     8     1     2    2
     9     2     3    1
    10     3     4   ar
    11     4     5   ar
    12     5    17    1
    13    17    18    1
    14    17    19    1
    15    17    20    1
    16    20    21    2
    17    20    22   am
    18    22    23    1
    19    23    24    1
    20    24    25    1
    21    25    26    1
    22    26    27    1
    23    27    28    1
    24     5     6   ar
    25     6     7   ar
    26     7     8    1
    27     8    29    1
    28    29    30    1
    29    30    31    1
    30    31    32    1
    31    32    33    1
    32    33    34    1
    33    34    37    1
    34    37    38    1
    35    38    39    2
    36    38    40   am
    37    40    41    1
    38    41    42    1
    39    42    43    1
    40    43    44    1
    41    44    45    1
    42    34    35    1
    43    35    36    1
    44    15    16   ar
    45    16    10   ar
    46     8     1    1
    47    36    31    1
    48     7     3   ar
    49    45    40    1
    50    26    22    1
    51    28    23    1
