@<TRIPOS>MOLECULE
*****
 42 46 0 0 0
SMALL
GASTEIGER

@<TRIPOS>ATOM
      1 C          61.7338   88.5262   11.2712 C.ar    1  UNL1        0.0040
      2 C          61.4143   87.3929   10.3420 C.ar    1  UNL1        0.0719
      3 C          62.0775   86.1568   10.8733 C.ar    1  UNL1        0.1049
      4 N          62.8069   86.5262   12.1309 N.ar    1  UNL1       -0.2242
      5 N          63.6370   85.7183   13.0839 N.ar    1  UNL1       -0.1422
      6 C          64.2547   86.3748   14.2828 C.ar    1  UNL1        0.2211
      7 N          64.0423   87.8392   14.5287 N.ar    1  UNL1       -0.2060
      8 C          63.2122   88.6471   13.5757 C.ar    1  UNL1        0.1515
      9 C          62.5945   87.9906   12.3768 C.ar    1  UNL1        0.1107
     10 C          60.5784   87.4803    9.0996 C.ar    1  UNL1        0.2525
     11 N          60.0500   86.3202    8.3090 N.ar    1  UNL1       -0.1057
     12 N          59.2691   86.8661    7.1504 N.ar    1  UNL1       -0.0923
     13 C          59.3148   88.3635    7.2250 C.ar    1  UNL1        0.3086
     14 O          60.1240   88.7431    8.4296 O.2     1  UNL1       -0.4048
     15 N          58.6654   89.3144    6.2637 N.pl3   1  UNL1       -0.2871
     16 H          57.7110   89.2163    6.0433 H       1  UNL1        0.1512
     17 C          59.4703   90.4149    5.6382 C.3     1  UNL1        0.0925
     18 C          58.7930   91.4510    4.7911 C.3     1  UNL1        0.0386
     19 C          59.5494   92.6676    4.3464 C.3     1  UNL1        0.0739
     20 N          60.2783   92.6599    3.0354 N.3     1  UNL1       -0.2703
     21 C          59.5632   93.0551    1.7774 C.3     1  UNL1        0.0897
     22 C          61.7222   92.2571    2.9824 C.3     1  UNL1        0.0897
     23 C          62.1752   90.9638   10.4878 C.3     1  UNL1        0.0047
     24 C          61.2735   89.9459   11.1212 C.3     1  UNL1        0.0241
     25 C          59.9117   90.3479   11.6045 C.3     1  UNL1        0.0047
     26 N          62.9998   90.1114   13.8217 N.pl3   1  UNL1       -0.2949
     27 H          62.0867   90.4787   13.8489 H       1  UNL1        0.1537
     28 C          64.1785   91.0163   14.0261 C.ar    1  UNL1        0.0775
     29 C          64.8735   91.6217   12.8427 C.ar    1  UNL1        0.0237
     30 C          66.0522   92.5265   13.0471 C.ar    1  UNL1        0.0821
     31 C          66.5359   92.8261   14.4350 C.ar    1  UNL1        0.1468
     32 F          67.7147   93.7311   14.6395 F       1  UNL1       -0.2039
     33 C          65.8409   92.2208   15.6185 C.ar    1  UNL1        0.0607
     34 C          64.6622   91.3159   15.4140 C.ar    1  UNL1        0.1557
     35 F          63.9672   90.7106   16.5975 F       1  UNL1       -0.2028
     36 C          66.7473   93.1319   11.8637 C.2     1  UNL1        0.2480
     37 O          67.9686   92.4736   11.2937 O.2     1  UNL1       -0.2701
     38 N          66.2209   94.3955   11.2502 N.am    1  UNL1       -0.3024
     39 H          65.4193   94.8275   11.6244 H       1  UNL1        0.1497
     40 C          66.9159   95.0008   10.0668 C.3     1  UNL1        0.0720
     41 C          67.3615   96.2113    9.3012 C.3     1  UNL1        0.0213
     42 C          67.6740   94.8389    8.7827 C.3     1  UNL1        0.0213
@<TRIPOS>BOND
     1    23    24    1
     2    24    25    1
     3    24     1    1
     4     1     2   ar
     5     2    10    1
     6    10    11   ar
     7    11    12   ar
     8    12    13   ar
     9    13    15    1
    10    15    17    1
    11    17    18    1
    12    18    19    1
    13    19    20    1
    14    20    21    1
    15    20    22    1
    16    13    14   ar
    17     2     3   ar
    18     3     4   ar
    19     4     5   ar
    20     5     6   ar
    21     6     7   ar
    22     7     8   ar
    23     8    26    1
    24    26    28    1
    25    28    29   ar
    26    29    30   ar
    27    30    36    1
    28    36    37    2
    29    36    38   am
    30    38    40    1
    31    40    41    1
    32    41    42    1
    33    30    31   ar
    34    31    32    1
    35    31    33   ar
    36    33    34   ar
    37    34    35    1
    38     8     9   ar
    39     9     1   ar
    40    14    10   ar
    41     9     4   ar
    42    34    28   ar
    43    42    40    1
    44    15    16    1
    45    26    27    1
    46    38    39    1
@<TRIPOS>MOLECULE
*****
 42 46 0 0 0
SMALL
GASTEIGER

@<TRIPOS>ATOM
      1 C          62.4473   87.5304   11.7813 C.ar    1  UNL1        0.0040
      2 C          62.4388   86.2712   10.9662 C.ar    1  UNL1        0.0719
      3 C          63.1278   85.2008   11.7597 C.ar    1  UNL1        0.1049
      4 N          63.5621   85.7985   13.0652 N.ar    1  UNL1       -0.2242
      5 N          64.2861   85.2177   14.2434 N.ar    1  UNL1       -0.1422
      6 C          64.5896   86.0767   15.4350 C.ar    1  UNL1        0.2211
      7 N          64.1691   87.5165   15.4484 N.ar    1  UNL1       -0.2060
      8 C          63.4451   88.0973   14.2701 C.ar    1  UNL1        0.1515
      9 C          63.1415   87.2383   13.0785 C.ar    1  UNL1        0.1107
     10 C          61.8455   86.1106    9.5979 C.ar    1  UNL1        0.2525
     11 N          62.4295   85.3095    8.4722 N.ar    1  UNL1       -0.1057
     12 N          61.5090   85.4267    7.2936 N.ar    1  UNL1       -0.0923
     13 C          60.3561   86.3002    7.6910 C.ar    1  UNL1        0.3086
     14 O          60.5641   86.7228    9.1151 O.2     1  UNL1       -0.4048
     15 N          59.1985   86.6837    6.8176 N.pl3   1  UNL1       -0.2871
     16 H          58.8737   86.0598    6.1287 H       1  UNL1        0.1512
     17 C          58.5356   88.0177    6.9938 C.3     1  UNL1        0.0925
     18 C          59.3207   89.2786    6.7847 C.3     1  UNL1        0.0386
     19 C          58.6763   90.4629    6.1271 C.3     1  UNL1        0.0739
     20 N          59.3850   91.1826    5.0181 N.3     1  UNL1       -0.2703
     21 C          60.8680   91.0299    4.8522 C.3     1  UNL1        0.0897
     22 C          58.6107   92.0550    4.0751 C.3     1  UNL1        0.0897
     23 C          62.6318   89.7575   10.4560 C.3     1  UNL1        0.0047
     24 C          61.8641   88.8501   11.3711 C.3     1  UNL1        0.0241
     25 C          60.5132   89.2625   11.8761 C.3     1  UNL1        0.0047
     26 N          63.0245   89.5370   14.2834 N.pl3   1  UNL1       -0.2949
     27 H          62.0683   89.7708   14.2655 H       1  UNL1        0.1537
     28 C          64.0608   90.6207   14.3241 C.ar    1  UNL1        0.0775
     29 C          64.6390   91.1539   13.0468 C.ar    1  UNL1        0.0237
     30 C          65.6753   92.2375   13.0875 C.ar    1  UNL1        0.0821
     31 C          66.1335   92.7881   14.4054 C.ar    1  UNL1        0.1468
     32 F          67.1698   93.8718   14.4460 F       1  UNL1       -0.2039
     33 C          65.5553   92.2550   15.6827 C.ar    1  UNL1        0.0607
     34 C          64.5190   91.1713   15.6420 C.ar    1  UNL1        0.1557
     35 F          63.9408   90.6382   16.9193 F       1  UNL1       -0.2028
     36 C          66.2536   92.7707   11.8101 C.2     1  UNL1        0.2480
     37 O          65.5788   93.9050   11.0973 O.2     1  UNL1       -0.2701
     38 N          67.5066   92.1696   11.2457 N.am    1  UNL1       -0.3024
     39 H          67.9494   91.4251   11.7135 H       1  UNL1        0.1497
     40 C          68.0848   92.7027    9.9684 C.3     1  UNL1        0.0720
     41 C          68.3992   93.8609    9.0686 C.3     1  UNL1        0.0213
     42 C          68.7719   92.4679    8.6559 C.3     1  UNL1        0.0213
@<TRIPOS>BOND
     1    23    24    1
     2    24    25    1
     3    24     1    1
     4     1     2   ar
     5     2    10    1
     6    10    11   ar
     7    11    12   ar
     8    12    13   ar
     9    13    15    1
    10    15    17    1
    11    17    18    1
    12    18    19    1
    13    19    20    1
    14    20    21    1
    15    20    22    1
    16    13    14   ar
    17     2     3   ar
    18     3     4   ar
    19     4     5   ar
    20     5     6   ar
    21     6     7   ar
    22     7     8   ar
    23     8    26    1
    24    26    28    1
    25    28    29   ar
    26    29    30   ar
    27    30    36    1
    28    36    37    2
    29    36    38   am
    30    38    40    1
    31    40    41    1
    32    41    42    1
    33    30    31   ar
    34    31    32    1
    35    31    33   ar
    36    33    34   ar
    37    34    35    1
    38     8     9   ar
    39     9     1   ar
    40    14    10   ar
    41     9     4   ar
    42    34    28   ar
    43    42    40    1
    44    15    16    1
    45    26    27    1
    46    38    39    1
@<TRIPOS>MOLECULE
*****
 42 46 0 0 0
SMALL
GASTEIGER

@<TRIPOS>ATOM
      1 C          63.7374   88.2578   13.7944 C.ar    1  UNL1        0.0040
      2 C          63.7037   89.7541   13.6943 C.ar    1  UNL1        0.0719
      3 C          63.1345   90.1162   12.3546 C.ar    1  UNL1        0.1049
      4 N          62.8165   88.8438   11.6267 N.ar    1  UNL1       -0.2242
      5 N          62.2359   88.5826   10.2686 N.ar    1  UNL1       -0.1422
      6 C          62.0278   87.1729    9.8004 C.ar    1  UNL1        0.2211
      7 N          62.4004   86.0243   10.6903 N.ar    1  UNL1       -0.2060
      8 C          62.9810   86.2855   12.0484 C.ar    1  UNL1        0.1515
      9 C          63.1891   87.6952   12.5166 C.ar    1  UNL1        0.1107
     10 C          64.1591   90.7188   14.7488 C.ar    1  UNL1        0.2525
     11 N          63.3407   91.2125   15.9049 N.ar    1  UNL1       -0.1057
     12 N          64.1886   92.1581   16.7029 N.ar    1  UNL1       -0.0923
     13 C          65.5312   92.2488   16.0400 C.ar    1  UNL1        0.3086
     14 O          65.5129   91.3594   14.8323 O.2     1  UNL1       -0.4048
     15 N          66.6887   93.0827   16.5034 N.pl3   1  UNL1       -0.2871
     16 H          66.5272   93.9071   17.0167 H       1  UNL1        0.1512
     17 C          68.0923   92.6605   16.1847 C.3     1  UNL1        0.0925
     18 C          68.6677   92.9341   14.8268 C.3     1  UNL1        0.0386
     19 C          68.1728   92.1699   13.6347 C.3     1  UNL1        0.0739
     20 N          67.3159   92.8518   12.6096 N.3     1  UNL1       -0.2703
     21 C          66.4598   94.0187   13.0040 C.3     1  UNL1        0.0897
     22 C          67.3150   92.3669   11.1901 C.3     1  UNL1        0.0897
     23 C          63.5428   87.5762   16.2940 C.3     1  UNL1        0.0047
     24 C          64.2325   87.4636   14.9666 C.3     1  UNL1        0.0241
     25 C          65.4171   86.5567   14.8116 C.3     1  UNL1        0.0047
     26 N          63.3536   85.1369   12.9383 N.pl3   1  UNL1       -0.2949
     27 H          63.6877   85.3077   13.8485 H       1  UNL1        0.1537
     28 C          63.2172   83.7282   12.4415 C.ar    1  UNL1        0.0775
     29 C          62.3567   82.7505   13.1856 C.ar    1  UNL1        0.0237
     30 C          62.2203   81.3418   12.6887 C.ar    1  UNL1        0.0821
     31 C          62.9444   80.9107   11.4478 C.ar    1  UNL1        0.1468
     32 F          62.8079   79.5019   10.9509 F       1  UNL1       -0.2039
     33 C          63.8048   81.8884   10.7036 C.ar    1  UNL1        0.0607
     34 C          63.9413   83.2972   11.2005 C.ar    1  UNL1        0.1557
     35 F          64.8017   84.2748   10.4564 F       1  UNL1       -0.2028
     36 C          61.3599   80.3640   13.4329 C.2     1  UNL1        0.2480
     37 O          61.9103   79.0234   13.8199 O.2     1  UNL1       -0.2701
     38 N          59.9489   80.7269   13.7899 N.am    1  UNL1       -0.3024
     39 H          59.5876   81.6068   13.5359 H       1  UNL1        0.1497
     40 C          59.0884   79.7492   14.5340 C.3     1  UNL1        0.0720
     41 C          58.0248   79.4684   15.5537 C.3     1  UNL1        0.0213
     42 C          58.6616   78.3367   14.8031 C.3     1  UNL1        0.0213
@<TRIPOS>BOND
     1    23    24    1
     2    24    25    1
     3    24     1    1
     4     1     2   ar
     5     2    10    1
     6    10    11   ar
     7    11    12   ar
     8    12    13   ar
     9    13    15    1
    10    15    17    1
    11    17    18    1
    12    18    19    1
    13    19    20    1
    14    20    21    1
    15    20    22    1
    16    13    14   ar
    17     2     3   ar
    18     3     4   ar
    19     4     5   ar
    20     5     6   ar
    21     6     7   ar
    22     7     8   ar
    23     8    26    1
    24    26    28    1
    25    28    29   ar
    26    29    30   ar
    27    30    36    1
    28    36    37    2
    29    36    38   am
    30    38    40    1
    31    40    41    1
    32    41    42    1
    33    30    31   ar
    34    31    32    1
    35    31    33   ar
    36    33    34   ar
    37    34    35    1
    38     8     9   ar
    39     9     1   ar
    40    14    10   ar
    41     9     4   ar
    42    34    28   ar
    43    42    40    1
    44    15    16    1
    45    26    27    1
    46    38    39    1
@<TRIPOS>MOLECULE
*****
 42 46 0 0 0
SMALL
GASTEIGER

@<TRIPOS>ATOM
      1 C          63.0002   86.4914   12.3697 C.ar    1  UNL1        0.0040
      2 C          62.8248   85.4784   11.2774 C.ar    1  UNL1        0.0719
      3 C          62.2389   86.1775   10.0867 C.ar    1  UNL1        0.1049
      4 N          62.0521   87.6226   10.4430 N.ar    1  UNL1       -0.2242
      5 N          61.5144   88.7868    9.6649 N.ar    1  UNL1       -0.1422
      6 C          61.4471   90.1450   10.2979 C.ar    1  UNL1        0.2211
      7 N          61.9176   90.3390   11.7089 N.ar    1  UNL1       -0.2060
      8 C          62.4554   89.1748   12.4870 C.ar    1  UNL1        0.1515
      9 C          62.5226   87.8166   11.8540 C.ar    1  UNL1        0.1107
     10 C          63.1741   84.0221   11.3612 C.ar    1  UNL1        0.2525
     11 N          64.4427   83.3899   10.8701 N.ar    1  UNL1       -0.1057
     12 N          64.3688   81.9193   11.1561 N.ar    1  UNL1       -0.0923
     13 C          63.0545   81.6425   11.8241 C.ar    1  UNL1        0.3086
     14 O          62.3162   82.9421   11.9508 O.2     1  UNL1       -0.4048
     15 N          62.5646   80.3017   12.2845 N.pl3   1  UNL1       -0.2871
     16 H          62.4359   79.5745   11.6334 H       1  UNL1        0.1512
     17 C          62.2707   80.0687   13.7369 C.3     1  UNL1        0.0925
     18 C          61.1403   80.7985   14.3997 C.3     1  UNL1        0.0386
     19 C          59.7353   80.6087   13.9098 C.3     1  UNL1        0.0739
     20 N          58.8030   79.6904   14.6431 N.3     1  UNL1       -0.2703
     21 C          58.9578   78.2041   14.5129 C.3     1  UNL1        0.0897
     22 C          57.7159   80.2584   15.5066 C.3     1  UNL1        0.0897
     23 C          63.0474   85.0657   14.5412 C.3     1  UNL1        0.0047
     24 C          63.5556   86.2259   13.7376 C.3     1  UNL1        0.0241
     25 C          64.6191   87.1205   14.3019 C.3     1  UNL1        0.0047
     26 N          62.9259   89.3688   13.8980 N.pl3   1  UNL1       -0.2949
     27 H          62.5487   88.8193   14.6226 H       1  UNL1        0.1537
     28 C          63.9709   90.4001   14.2050 C.ar    1  UNL1        0.0775
     29 C          64.8758   90.8978   13.1172 C.ar    1  UNL1        0.0237
     30 C          65.9209   91.9291   13.4242 C.ar    1  UNL1        0.0821
     31 C          66.0611   92.4627   14.8191 C.ar    1  UNL1        0.1468
     32 F          67.1062   93.4940   15.1261 F       1  UNL1       -0.2039
     33 C          65.1562   91.9649   15.9069 C.ar    1  UNL1        0.0607
     34 C          64.1111   90.9336   15.5999 C.ar    1  UNL1        0.1557
     35 F          63.2062   90.4359   16.6878 F       1  UNL1       -0.2028
     36 C          66.8258   92.4269   12.3363 C.2     1  UNL1        0.2480
     37 O          68.2933   92.1199   12.3824 O.2     1  UNL1       -0.2701
     38 N          66.2632   93.2317   11.2024 N.am    1  UNL1       -0.3024
     39 H          65.3000   93.4332   11.1722 H       1  UNL1        0.1497
     40 C          67.1680   93.7294   10.1146 C.3     1  UNL1        0.0720
     41 C          68.2675   93.4819    9.1246 C.3     1  UNL1        0.0213
     42 C          67.6359   94.8391    9.2203 C.3     1  UNL1        0.0213
@<TRIPOS>BOND
     1    23    24    1
     2    24    25    1
     3    24     1    1
     4     1     2   ar
     5     2    10    1
     6    10    11   ar
     7    11    12   ar
     8    12    13   ar
     9    13    15    1
    10    15    17    1
    11    17    18    1
    12    18    19    1
    13    19    20    1
    14    20    21    1
    15    20    22    1
    16    13    14   ar
    17     2     3   ar
    18     3     4   ar
    19     4     5   ar
    20     5     6   ar
    21     6     7   ar
    22     7     8   ar
    23     8    26    1
    24    26    28    1
    25    28    29   ar
    26    29    30   ar
    27    30    36    1
    28    36    37    2
    29    36    38   am
    30    38    40    1
    31    40    41    1
    32    41    42    1
    33    30    31   ar
    34    31    32    1
    35    31    33   ar
    36    33    34   ar
    37    34    35    1
    38     8     9   ar
    39     9     1   ar
    40    14    10   ar
    41     9     4   ar
    42    34    28   ar
    43    42    40    1
    44    15    16    1
    45    26    27    1
    46    38    39    1
@<TRIPOS>MOLECULE
*****
 42 46 0 0 0
SMALL
GASTEIGER

@<TRIPOS>ATOM
      1 C          62.4607   86.8732   11.5287 C.ar    1  UNL1        0.0040
      2 C          62.4659   85.8622   10.4207 C.ar    1  UNL1        0.0719
      3 C          61.7990   86.4793    9.2272 C.ar    1  UNL1        0.1049
      4 N          61.3816   87.8716    9.5976 N.ar    1  UNL1       -0.2242
      5 N          60.6821   88.9492    8.8234 N.ar    1  UNL1       -0.1422
      6 C          60.3915   90.2702    9.4717 C.ar    1  UNL1        0.2211
      7 N          60.8005   90.5137   10.8942 N.ar    1  UNL1       -0.2060
      8 C          61.5000   89.4361   11.6684 C.ar    1  UNL1        0.1515
      9 C          61.7906   88.1151   11.0201 C.ar    1  UNL1        0.1107
     10 C          63.0376   84.4774   10.4933 C.ar    1  UNL1        0.2525
     11 N          64.0816   83.9055    9.5807 N.ar    1  UNL1       -0.1057
     12 N          64.3550   82.4959   10.0147 N.ar    1  UNL1       -0.0923
     13 C          63.4798   82.1966   11.1956 C.ar    1  UNL1        0.3086
     14 O          62.6657   83.4212   11.4914 O.2     1  UNL1       -0.4048
     15 N          63.4279   80.9003   11.9485 N.pl3   1  UNL1       -0.2871
     16 H          64.1968   80.2858   11.9243 H       1  UNL1        0.1512
     17 C          62.2046   80.5401   12.7384 C.3     1  UNL1        0.0925
     18 C          62.1270   80.8799   14.1973 C.3     1  UNL1        0.0386
     19 C          61.9375   82.3047   14.6264 C.3     1  UNL1        0.0739
     20 N          63.0780   83.0610   15.2408 N.3     1  UNL1       -0.2703
     21 C          62.8292   83.9863   16.3949 C.3     1  UNL1        0.0897
     22 C          64.4673   82.8920   14.7010 C.3     1  UNL1        0.0897
     23 C          62.4005   85.6834   13.8376 C.3     1  UNL1        0.0047
     24 C          63.0264   86.6769   12.9040 C.3     1  UNL1        0.0241
     25 C          64.2177   87.4739   13.3459 C.3     1  UNL1        0.0047
     26 N          61.9090   89.6796   13.0908 N.pl3   1  UNL1       -0.2949
     27 H          61.3616   89.3247   13.8281 H       1  UNL1        0.1537
     28 C          63.1521   90.4639   13.3901 C.ar    1  UNL1        0.0775
     29 C          63.8097   91.2688   12.3084 C.ar    1  UNL1        0.0237
     30 C          65.0528   92.0531   12.6077 C.ar    1  UNL1        0.0821
     31 C          65.6384   92.0325   13.9885 C.ar    1  UNL1        0.1468
     32 F          66.8816   92.8168   14.2876 F       1  UNL1       -0.2039
     33 C          64.9809   91.2276   15.0700 C.ar    1  UNL1        0.0607
     34 C          63.7378   90.4433   14.7709 C.ar    1  UNL1        0.1557
     35 F          63.0803   89.6384   15.8524 F       1  UNL1       -0.2028
     36 C          65.7103   92.8581   11.5260 C.2     1  UNL1        0.2480
     37 O          66.2948   92.1693   10.3286 O.2     1  UNL1       -0.2701
     38 N          65.7832   94.3518   11.6419 N.am    1  UNL1       -0.3024
     39 H          65.3996   94.8039   12.4279 H       1  UNL1        0.1497
     40 C          66.4407   95.1567   10.5604 C.3     1  UNL1        0.0720
     41 C          66.8411   96.4855    9.9911 C.3     1  UNL1        0.0213
     42 C          67.1792   95.2222    9.2564 C.3     1  UNL1        0.0213
@<TRIPOS>BOND
     1    23    24    1
     2    24    25    1
     3    24     1    1
     4     1     2   ar
     5     2    10    1
     6    10    11   ar
     7    11    12   ar
     8    12    13   ar
     9    13    15    1
    10    15    17    1
    11    17    18    1
    12    18    19    1
    13    19    20    1
    14    20    21    1
    15    20    22    1
    16    13    14   ar
    17     2     3   ar
    18     3     4   ar
    19     4     5   ar
    20     5     6   ar
    21     6     7   ar
    22     7     8   ar
    23     8    26    1
    24    26    28    1
    25    28    29   ar
    26    29    30   ar
    27    30    36    1
    28    36    37    2
    29    36    38   am
    30    38    40    1
    31    40    41    1
    32    41    42    1
    33    30    31   ar
    34    31    32    1
    35    31    33   ar
    36    33    34   ar
    37    34    35    1
    38     8     9   ar
    39     9     1   ar
    40    14    10   ar
    41     9     4   ar
    42    34    28   ar
    43    42    40    1
    44    15    16    1
    45    26    27    1
    46    38    39    1
