@<TRIPOS>MOLECULE
*****
 41 44 0 0 0
SMALL
GASTEIGER

@<TRIPOS>ATOM
      1 C          63.8347   90.0894   13.4729 C.ar    1  UNL1        0.0703
      2 C          64.8655   91.1790   13.4594 C.ar    1  UNL1        0.0465
      3 C          65.7212   91.4171   14.6681 C.3     1  UNL1        0.0503
      4 N          65.0406   92.0307   12.2370 N.ar    1  UNL1       -0.2806
      5 C          64.1849   91.7926   11.0282 C.ar    1  UNL1        0.3338
      6 O          64.2118   92.2858   10.1771 O.2     1  UNL1       -0.2462
      7 N          63.1541   90.7029   11.0419 N.ar    1  UNL1       -0.2470
      8 C          62.9790   89.8514   12.2642 C.ar    1  UNL1        0.2654
      9 O          61.9482   88.7617   12.2778 O.2     1  UNL1       -0.2668
     10 C          63.7627   86.9137   15.8519 C.ar    1  UNL1        0.1660
     11 C          63.3095   87.5346   17.1399 C.ar    1  UNL1        0.0392
     12 C          63.0314   89.0071   17.2056 C.ar    1  UNL1        0.0033
     13 C          63.2065   89.8587   15.9834 C.ar    1  UNL1        0.0026
     14 C          63.6596   89.2378   14.6953 C.ar    1  UNL1        0.0362
     15 C          63.9378   87.7653   14.6296 C.ar    1  UNL1        0.1739
     16 F          64.3910   87.1444   13.3415 F       1  UNL1       -0.2010
     17 C          62.9923   84.5023   15.2675 C.3     1  UNL1        0.2526
     18 O          64.0408   85.4411   15.7861 O.3     1  UNL1       -0.4692
     19 C          66.0714   93.1203   12.2234 C.3     1  UNL1        0.1391
     20 C          66.8485   93.4019   10.9717 C.ar    1  UNL1        0.0319
     21 C          67.7371   92.3446   10.3867 C.ar    1  UNL1        0.1379
     22 F          67.8866   91.4368   10.7359 F       1  UNL1       -0.2044
     23 C          68.5142   92.6263    9.1349 C.ar    1  UNL1        0.0294
     24 C          68.4027   93.9653    8.4683 C.ar    1  UNL1        0.0022
     25 C          67.5140   95.0227    9.0533 C.ar    1  UNL1        0.0037
     26 C          66.7370   94.7411   10.3050 C.ar    1  UNL1        0.0714
     27 C          65.8484   95.7985   10.8901 C.3     1  UNL1        0.4184
     28 F          64.9597   96.8559   11.4751 F       1  UNL1       -0.1659
     29 F          64.7135   95.3178   10.0351 F       1  UNL1       -0.1659
     30 F          66.9832   96.2791   11.7451 F       1  UNL1       -0.1659
     31 C          62.2984   90.4649    9.8331 C.3     1  UNL1        0.1334
     32 C          60.9801   89.7633    9.9738 C.3     1  UNL1        0.0968
     33 N          59.9156   90.3378   10.8610 N.3     1  UNL1       -0.3172
     34 H          59.0924   89.7360   10.8379 H       1  UNL1        0.1192
     35 H          59.6648   91.2699   10.5313 H       1  UNL1        0.1192
     36 C          60.7262   88.4872    9.2274 C.ar    1  UNL1       -0.0063
     37 C          61.7117   87.3597    9.3125 C.ar    1  UNL1       -0.0029
     38 C          61.4578   86.0836    8.5661 C.ar    1  UNL1       -0.0003
     39 C          60.2183   85.9351    7.7346 C.ar    1  UNL1       -0.0000
     40 C          59.2326   87.0626    7.6494 C.ar    1  UNL1       -0.0003
     41 C          59.4866   88.3387    8.3958 C.ar    1  UNL1       -0.0029
@<TRIPOS>BOND
     1    17    18    1
     2    18    10    1
     3    10    11   ar
     4    11    12   ar
     5    12    13   ar
     6    13    14   ar
     7    14     1    1
     8     1     2   ar
     9     2     3    1
    10     2     4   ar
    11     4    19    1
    12    19    20    1
    13    20    21   ar
    14    21    22    1
    15    21    23   ar
    16    23    24   ar
    17    24    25   ar
    18    25    26   ar
    19    26    27    1
    20    27    28    1
    21    27    29    1
    22    27    30    1
    23     4     5   ar
    24     5     6    2
    25     5     7   ar
    26     7    31    1
    27    31    32    1
    28    32    33    1
    29    32    36    1
    30    36    37   ar
    31    37    38   ar
    32    38    39   ar
    33    39    40   ar
    34    40    41   ar
    35     7     8   ar
    36     8     9    2
    37    14    15   ar
    38    15    16    1
    39    15    10   ar
    40     8     1   ar
    41    26    20   ar
    42    41    36   ar
    43    33    34    1
    44    33    35    1
@<TRIPOS>MOLECULE
*****
 41 44 0 0 0
SMALL
GASTEIGER

@<TRIPOS>ATOM
      1 C          62.1510   87.1515   10.7654 C.ar    1  UNL1        0.0703
      2 C          62.2182   88.6211   11.0584 C.ar    1  UNL1        0.0465
      3 C          61.5997   89.6041   10.1091 C.3     1  UNL1        0.0503
      4 N          62.9040   89.1076   12.3006 N.ar    1  UNL1       -0.2806
      5 C          63.5225   88.1246   13.2498 C.ar    1  UNL1        0.3338
      6 O          63.9946   88.3281   14.0890 O.2     1  UNL1       -0.2462
      7 N          63.4553   86.6549   12.9568 N.ar    1  UNL1       -0.2470
      8 C          62.7695   86.1684   11.7147 C.ar    1  UNL1        0.2654
      9 O          62.7022   84.6988   11.4217 O.2     1  UNL1       -0.2668
     10 C          61.5389   85.3660    7.2744 C.ar    1  UNL1        0.1660
     11 C          60.0938   85.6918    7.0389 C.ar    1  UNL1        0.0392
     12 C          59.3344   86.5042    8.0456 C.ar    1  UNL1        0.0033
     13 C          60.0201   86.9908    9.2877 C.ar    1  UNL1        0.0026
     14 C          61.4652   86.6649    9.5232 C.ar    1  UNL1        0.0362
     15 C          62.2246   85.8526    8.5165 C.ar    1  UNL1        0.1739
     16 F          63.6697   85.5267    8.7521 F       1  UNL1       -0.2010
     17 C          61.6424   84.1512    4.9802 C.3     1  UNL1        0.2526
     18 O          62.2982   84.5536    6.2677 O.3     1  UNL1       -0.4692
     19 C          62.9713   90.5772   12.5935 C.3     1  UNL1        0.1391
     20 C          64.2130   91.3514   12.2642 C.ar    1  UNL1        0.0319
     21 C          64.4604   91.8095   10.8575 C.ar    1  UNL1        0.1379
     22 F          63.8816   91.6604   10.0756 F       1  UNL1       -0.2044
     23 C          65.7022   92.5838   10.5282 C.ar    1  UNL1        0.0294
     24 C          66.6966   92.9001   11.6058 C.ar    1  UNL1        0.0022
     25 C          66.4493   92.4421   13.0125 C.ar    1  UNL1        0.0037
     26 C          65.2075   91.6678   13.3418 C.ar    1  UNL1        0.0714
     27 C          64.9601   91.2098   14.7486 C.3     1  UNL1        0.4184
     28 F          64.7128   90.7518   16.1554 F       1  UNL1       -0.1659
     29 F          63.5418   91.6890   14.6552 F       1  UNL1       -0.1659
     30 F          66.3784   90.7305   14.8419 F       1  UNL1       -0.1659
     31 C          64.0738   85.6719   13.9060 C.3     1  UNL1        0.1334
     32 C          63.2002   84.7657   14.7220 C.3     1  UNL1        0.0968
     33 N          62.5233   85.2870   15.9549 N.3     1  UNL1       -0.3172
     34 H          61.9737   84.5414   16.3821 H       1  UNL1        0.1192
     35 H          61.9086   86.0613   15.7038 H       1  UNL1        0.1192
     36 C          63.0036   83.3383   14.3050 C.ar    1  UNL1       -0.0063
     37 C          61.7061   82.6441   14.5954 C.ar    1  UNL1       -0.0029
     38 C          61.5094   81.2167   14.1784 C.ar    1  UNL1       -0.0003
     39 C          62.6103   80.4835   13.4711 C.ar    1  UNL1       -0.0000
     40 C          63.9080   81.1777   13.1807 C.ar    1  UNL1       -0.0003
     41 C          64.1046   82.6051   13.5976 C.ar    1  UNL1       -0.0029
@<TRIPOS>BOND
     1    17    18    1
     2    18    10    1
     3    10    11   ar
     4    11    12   ar
     5    12    13   ar
     6    13    14   ar
     7    14     1    1
     8     1     2   ar
     9     2     3    1
    10     2     4   ar
    11     4    19    1
    12    19    20    1
    13    20    21   ar
    14    21    22    1
    15    21    23   ar
    16    23    24   ar
    17    24    25   ar
    18    25    26   ar
    19    26    27    1
    20    27    28    1
    21    27    29    1
    22    27    30    1
    23     4     5   ar
    24     5     6    2
    25     5     7   ar
    26     7    31    1
    27    31    32    1
    28    32    33    1
    29    32    36    1
    30    36    37   ar
    31    37    38   ar
    32    38    39   ar
    33    39    40   ar
    34    40    41   ar
    35     7     8   ar
    36     8     9    2
    37    14    15   ar
    38    15    16    1
    39    15    10   ar
    40     8     1   ar
    41    26    20   ar
    42    41    36   ar
    43    33    34    1
    44    33    35    1
@<TRIPOS>MOLECULE
*****
 41 44 0 0 0
SMALL
GASTEIGER

@<TRIPOS>ATOM
      1 C          63.9505   89.3225   13.9823 C.ar    1  UNL1        0.0703
      2 C          63.5399   89.6222   12.5711 C.ar    1  UNL1        0.0465
      3 C          63.6004   91.0294   12.0551 C.3     1  UNL1        0.0503
      4 N          63.0686   88.5147   11.6759 N.ar    1  UNL1       -0.2806
      5 C          63.0081   87.1076   12.1918 C.ar    1  UNL1        0.3338
      6 O          62.7175   86.3076   11.6979 O.2     1  UNL1       -0.2462
      7 N          63.4188   86.8079   13.6031 N.ar    1  UNL1       -0.2470
      8 C          63.8900   87.9154   14.4983 C.ar    1  UNL1        0.2654
      9 O          64.3007   87.6157   15.9096 O.2     1  UNL1       -0.2668
     10 C          66.1437   92.2938   15.4356 C.ar    1  UNL1        0.1660
     11 C          65.3642   92.6450   16.6680 C.ar    1  UNL1        0.0392
     12 C          64.1135   91.8887   17.0053 C.ar    1  UNL1        0.0033
     13 C          63.6423   90.7812   16.1101 C.ar    1  UNL1        0.0026
     14 C          64.4218   90.4301   14.8776 C.ar    1  UNL1        0.0362
     15 C          65.6725   91.1863   14.5403 C.ar    1  UNL1        0.1739
     16 F          66.4520   90.8351   13.3078 F       1  UNL1       -0.2010
     17 C          68.7138   92.6039   15.6552 C.3     1  UNL1        0.2526
     18 O          67.3944   93.0500   15.0983 O.3     1  UNL1       -0.4692
     19 C          62.6580   88.8144   10.2647 C.3     1  UNL1        0.1391
     20 C          61.6595   87.9355    9.5715 C.ar    1  UNL1        0.0319
     21 C          62.1288   86.7832    8.7336 C.ar    1  UNL1        0.1379
     22 F          63.0601   86.5114    8.5687 F       1  UNL1       -0.2044
     23 C          61.1302   85.9043    8.0404 C.ar    1  UNL1        0.0294
     24 C          59.6625   86.1777    8.1850 C.ar    1  UNL1        0.0022
     25 C          59.1932   87.3300    9.0229 C.ar    1  UNL1        0.0037
     26 C          60.1917   88.2089    9.7161 C.ar    1  UNL1        0.0714
     27 C          59.7224   89.3611   10.5540 C.3     1  UNL1        0.4184
     28 F          59.2531   90.5134   11.3918 F       1  UNL1       -0.1659
     29 F          59.8493   90.2736    9.3702 F       1  UNL1       -0.1659
     30 F          59.5955   88.4487   11.7377 F       1  UNL1       -0.1659
     31 C          63.3583   85.4007   14.1191 C.3     1  UNL1        0.1334
     32 C          64.3844   84.3973   13.6830 C.3     1  UNL1        0.0968
     33 N          65.7777   84.4609   14.2351 N.3     1  UNL1       -0.3172
     34 H          66.3374   83.7088   13.8331 H       1  UNL1        0.1192
     35 H          65.7467   84.3568   15.2493 H       1  UNL1        0.1192
     36 C          64.0172   83.3301   12.6949 C.ar    1  UNL1       -0.0063
     37 C          64.4728   83.4385   11.2700 C.ar    1  UNL1       -0.0029
     38 C          64.1057   82.3714   10.2819 C.ar    1  UNL1       -0.0003
     39 C          63.2828   81.1958   10.7187 C.ar    1  UNL1       -0.0000
     40 C          62.8271   81.0873   12.1438 C.ar    1  UNL1       -0.0003
     41 C          63.1943   82.1545   13.1319 C.ar    1  UNL1       -0.0029
@<TRIPOS>BOND
     1    17    18    1
     2    18    10    1
     3    10    11   ar
     4    11    12   ar
     5    12    13   ar
     6    13    14   ar
     7    14     1    1
     8     1     2   ar
     9     2     3    1
    10     2     4   ar
    11     4    19    1
    12    19    20    1
    13    20    21   ar
    14    21    22    1
    15    21    23   ar
    16    23    24   ar
    17    24    25   ar
    18    25    26   ar
    19    26    27    1
    20    27    28    1
    21    27    29    1
    22    27    30    1
    23     4     5   ar
    24     5     6    2
    25     5     7   ar
    26     7    31    1
    27    31    32    1
    28    32    33    1
    29    32    36    1
    30    36    37   ar
    31    37    38   ar
    32    38    39   ar
    33    39    40   ar
    34    40    41   ar
    35     7     8   ar
    36     8     9    2
    37    14    15   ar
    38    15    16    1
    39    15    10   ar
    40     8     1   ar
    41    26    20   ar
    42    41    36   ar
    43    33    34    1
    44    33    35    1
@<TRIPOS>MOLECULE
*****
 41 44 0 0 0
SMALL
GASTEIGER

@<TRIPOS>ATOM
      1 C          63.8504   90.0542   13.5013 C.ar    1  UNL1        0.0703
      2 C          64.8391   91.1805   13.5631 C.ar    1  UNL1        0.0465
      3 C          65.6456   91.4031   14.8081 C.3     1  UNL1        0.0503
      4 N          65.0212   92.0844   12.3799 N.ar    1  UNL1       -0.2806
      5 C          64.2148   91.8618   11.1349 C.ar    1  UNL1        0.3338
      6 O          64.2505   92.3880   10.3040 O.2     1  UNL1       -0.2462
      7 N          63.2261   90.7353   11.0731 N.ar    1  UNL1       -0.2470
      8 C          63.0439   89.8316   12.2563 C.ar    1  UNL1        0.2654
      9 O          62.0553   88.7051   12.1945 O.2     1  UNL1       -0.2668
     10 C          63.7198   86.7715   15.7277 C.ar    1  UNL1        0.1660
     11 C          63.3039   87.3427   17.0508 C.ar    1  UNL1        0.0392
     12 C          63.0702   88.8177   17.1908 C.ar    1  UNL1        0.0033
     13 C          63.2523   89.7216   16.0076 C.ar    1  UNL1        0.0026
     14 C          63.6682   89.1503   14.6845 C.ar    1  UNL1        0.0362
     15 C          63.9020   87.6753   14.5446 C.ar    1  UNL1        0.1739
     16 F          64.3179   87.1041   13.2214 F       1  UNL1       -0.2010
     17 C          65.0857   84.7934   14.7421 C.3     1  UNL1        0.2526
     18 O          63.9536   85.2964   15.5877 O.3     1  UNL1       -0.4692
     19 C          66.0099   93.2107   12.4417 C.3     1  UNL1        0.1391
     20 C          66.4889   93.8584   11.1764 C.ar    1  UNL1        0.0319
     21 C          65.9017   95.1659   10.7342 C.ar    1  UNL1        0.1379
     22 F          65.2023   95.6859   11.1914 F       1  UNL1       -0.2044
     23 C          66.3808   95.8136    9.4688 C.ar    1  UNL1        0.0294
     24 C          67.4471   95.1537    8.6457 C.ar    1  UNL1        0.0022
     25 C          68.0343   93.8462    9.0879 C.ar    1  UNL1        0.0037
     26 C          67.5553   93.1985   10.3532 C.ar    1  UNL1        0.0714
     27 C          68.1425   91.8910   10.7954 C.3     1  UNL1        0.4184
     28 F          68.7297   90.5835   11.2375 F       1  UNL1       -0.1659
     29 F          68.2867   92.4270   12.1889 F       1  UNL1       -0.1659
     30 F          67.9983   91.3550    9.4018 F       1  UNL1       -0.1659
     31 C          62.4196   90.5127    9.8281 C.3     1  UNL1        0.1334
     32 C          61.0572   89.8916    9.9181 C.3     1  UNL1        0.0968
     33 N          59.9788   90.5616   10.7170 N.3     1  UNL1       -0.3172
     34 H          59.1249   90.0057   10.6689 H       1  UNL1        0.1192
     35 H          59.8012   91.4911   10.3362 H       1  UNL1        0.1192
     36 C          60.7732   88.6006    9.2092 C.ar    1  UNL1       -0.0063
     37 C          61.7138   87.4415    9.3563 C.ar    1  UNL1       -0.0029
     38 C          61.4298   86.1504    8.6474 C.ar    1  UNL1       -0.0003
     39 C          60.2052   86.0185    7.7913 C.ar    1  UNL1       -0.0000
     40 C          59.2645   87.1777    7.6441 C.ar    1  UNL1       -0.0003
     41 C          59.5485   88.4687    8.3530 C.ar    1  UNL1       -0.0029
@<TRIPOS>BOND
     1    17    18    1
     2    18    10    1
     3    10    11   ar
     4    11    12   ar
     5    12    13   ar
     6    13    14   ar
     7    14     1    1
     8     1     2   ar
     9     2     3    1
    10     2     4   ar
    11     4    19    1
    12    19    20    1
    13    20    21   ar
    14    21    22    1
    15    21    23   ar
    16    23    24   ar
    17    24    25   ar
    18    25    26   ar
    19    26    27    1
    20    27    28    1
    21    27    29    1
    22    27    30    1
    23     4     5   ar
    24     5     6    2
    25     5     7   ar
    26     7    31    1
    27    31    32    1
    28    32    33    1
    29    32    36    1
    30    36    37   ar
    31    37    38   ar
    32    38    39   ar
    33    39    40   ar
    34    40    41   ar
    35     7     8   ar
    36     8     9    2
    37    14    15   ar
    38    15    16    1
    39    15    10   ar
    40     8     1   ar
    41    26    20   ar
    42    41    36   ar
    43    33    34    1
    44    33    35    1
@<TRIPOS>MOLECULE
*****
 41 44 0 0 0
SMALL
GASTEIGER

@<TRIPOS>ATOM
      1 C          62.6009   86.8622   11.1504 C.ar    1  UNL1        0.0703
      2 C          62.6579   88.3209   11.4952 C.ar    1  UNL1        0.0465
      3 C          62.1847   89.3444   10.5061 C.3     1  UNL1        0.0503
      4 N          63.1880   88.7561   12.8293 N.ar    1  UNL1       -0.2806
      5 C          63.6611   87.7325   13.8185 C.ar    1  UNL1        0.3338
      6 O          64.0255   87.9012   14.7170 O.2     1  UNL1       -0.2462
      7 N          63.6041   86.2738   13.4736 N.ar    1  UNL1       -0.2470
      8 C          63.0740   85.8386   12.1396 C.ar    1  UNL1        0.2654
      9 O          63.0171   84.3799   11.7947 O.2     1  UNL1       -0.2668
     10 C          60.1541   86.3811    8.0631 C.ar    1  UNL1        0.1660
     11 C          61.0106   85.5567    7.1484 C.ar    1  UNL1        0.0392
     12 C          62.3972   85.1674    7.5677 C.ar    1  UNL1        0.0033
     13 C          62.9273   85.6025    8.9017 C.ar    1  UNL1        0.0026
     14 C          62.0708   86.4270    9.8164 C.ar    1  UNL1        0.0362
     15 C          60.6842   86.8163    9.3971 C.ar    1  UNL1        0.1739
     16 F          59.8277   87.6408   10.3118 F       1  UNL1       -0.2010
     17 C          58.4923   88.1654    7.1660 C.3     1  UNL1        0.2526
     18 O          58.7675   86.7704    7.6438 O.3     1  UNL1       -0.4692
     19 C          63.2449   90.2148   13.1741 C.3     1  UNL1        0.1391
     20 C          64.5703   90.9089   13.2812 C.ar    1  UNL1        0.0319
     21 C          65.4002   90.7538   14.5210 C.ar    1  UNL1        0.1379
     22 F          65.1771   90.2257   15.3209 F       1  UNL1       -0.2044
     23 C          66.7256   91.4480   14.6280 C.ar    1  UNL1        0.0294
     24 C          67.2211   92.2972   13.4952 C.ar    1  UNL1        0.0022
     25 C          66.3912   92.4523   12.2554 C.ar    1  UNL1        0.0037
     26 C          65.0659   91.7581   12.1483 C.ar    1  UNL1        0.0714
     27 C          64.2360   91.9132   10.9085 C.3     1  UNL1        0.4184
     28 F          63.4061   92.0683    9.6686 F       1  UNL1       -0.1659
     29 F          63.0002   92.0312   11.7504 F       1  UNL1       -0.1659
     30 F          65.4718   91.7952   10.0665 F       1  UNL1       -0.1659
     31 C          64.0772   85.2502   14.4628 C.3     1  UNL1        0.1334
     32 C          63.0894   84.3413   15.1321 C.3     1  UNL1        0.0968
     33 N          62.3366   84.8119   16.3412 N.3     1  UNL1       -0.3172
     34 H          61.7133   84.0714   16.6632 H       1  UNL1        0.1192
     35 H          61.7880   85.6373   16.1002 H       1  UNL1        0.1192
     36 C          62.8543   82.9617   14.5922 C.ar    1  UNL1       -0.0063
     37 C          61.4709   82.3818   14.5927 C.ar    1  UNL1       -0.0029
     38 C          61.2358   81.0022   14.0529 C.ar    1  UNL1       -0.0003
     39 C          62.3840   80.2025   13.5125 C.ar    1  UNL1       -0.0000
     40 C          63.7674   80.7823   13.5120 C.ar    1  UNL1       -0.0003
     41 C          64.0026   82.1619   14.0519 C.ar    1  UNL1       -0.0029
@<TRIPOS>BOND
     1    17    18    1
     2    18    10    1
     3    10    11   ar
     4    11    12   ar
     5    12    13   ar
     6    13    14   ar
     7    14     1    1
     8     1     2   ar
     9     2     3    1
    10     2     4   ar
    11     4    19    1
    12    19    20    1
    13    20    21   ar
    14    21    22    1
    15    21    23   ar
    16    23    24   ar
    17    24    25   ar
    18    25    26   ar
    19    26    27    1
    20    27    28    1
    21    27    29    1
    22    27    30    1
    23     4     5   ar
    24     5     6    2
    25     5     7   ar
    26     7    31    1
    27    31    32    1
    28    32    33    1
    29    32    36    1
    30    36    37   ar
    31    37    38   ar
    32    38    39   ar
    33    39    40   ar
    34    40    41   ar
    35     7     8   ar
    36     8     9    2
    37    14    15   ar
    38    15    16    1
    39    15    10   ar
    40     8     1   ar
    41    26    20   ar
    42    41    36   ar
    43    33    34    1
    44    33    35    1
@<TRIPOS>MOLECULE
*****
 41 44 0 0 0
SMALL
GASTEIGER

@<TRIPOS>ATOM
      1 C          63.2406   88.3454   13.6231 C.ar    1  UNL1        0.0703
      2 C          63.8980   87.0131   13.8294 C.ar    1  UNL1        0.0465
      3 C          65.0118   86.8724   14.8242 C.3     1  UNL1        0.0503
      4 N          63.4416   85.8214   13.0409 N.ar    1  UNL1       -0.2806
      5 C          62.3278   85.9621   12.0461 C.ar    1  UNL1        0.3338
      6 O          61.9488   85.2542   11.4772 O.2     1  UNL1       -0.2462
      7 N          61.6704   87.2946   11.8398 N.ar    1  UNL1       -0.2470
      8 C          62.1268   88.4862   12.6283 C.ar    1  UNL1        0.2654
      9 O          61.4693   89.8186   12.4220 O.2     1  UNL1       -0.2668
     10 C          64.9305   91.8208   14.5265 C.ar    1  UNL1        0.1660
     11 C          64.6097   91.9205   15.9884 C.ar    1  UNL1        0.0392
     12 C          63.8325   90.8285   16.6618 C.ar    1  UNL1        0.0033
     13 C          63.3761   89.6368   15.8734 C.ar    1  UNL1        0.0026
     14 C          63.6969   89.5372   14.4116 C.ar    1  UNL1        0.0362
     15 C          64.4741   90.6291   13.7381 C.ar    1  UNL1        0.1739
     16 F          64.7949   90.5294   12.2762 F       1  UNL1       -0.2010
     17 C          66.8970   93.5186   14.5374 C.3     1  UNL1        0.2526
     18 O          65.7077   92.9128   13.8530 O.3     1  UNL1       -0.4692
     19 C          64.0991   84.4891   13.2473 C.3     1  UNL1        0.1391
     20 C          63.2636   83.2467   13.3388 C.ar    1  UNL1        0.0319
     21 C          62.4106   83.0039   14.5486 C.ar    1  UNL1        0.1379
     22 F          62.3213   83.5862   15.3368 F       1  UNL1       -0.2044
     23 C          61.5751   81.7614   14.6401 C.ar    1  UNL1        0.0294
     24 C          61.5926   80.7618   13.5218 C.ar    1  UNL1        0.0022
     25 C          62.4456   81.0046   12.3121 C.ar    1  UNL1        0.0037
     26 C          63.2811   82.2470   12.2206 C.ar    1  UNL1        0.0714
     27 C          64.1340   82.4898   11.0108 C.3     1  UNL1        0.4184
     28 F          64.9870   82.7326    9.8011 F       1  UNL1       -0.1659
     29 F          62.9119   82.8581   10.2230 F       1  UNL1       -0.1659
     30 F          65.3562   82.1215   11.7986 F       1  UNL1       -0.1659
     31 C          60.5566   87.4353   10.8450 C.3     1  UNL1        0.1334
     32 C          60.8671   87.7405    9.4097 C.3     1  UNL1        0.0968
     33 N          60.7919   89.1529    8.9100 N.3     1  UNL1       -0.3172
     34 H          61.0326   89.1763    7.9191 H       1  UNL1        0.1192
     35 H          61.4474   89.7339    9.4328 H       1  UNL1        0.1192
     36 C          61.2527   86.6335    8.4739 C.ar    1  UNL1       -0.0063
     37 C          62.6528   86.0954    8.4852 C.ar    1  UNL1       -0.0029
     38 C          63.0385   84.9884    7.5494 C.ar    1  UNL1       -0.0003
     39 C          62.0240   84.4194    6.6023 C.ar    1  UNL1       -0.0000
     40 C          60.6238   84.9574    6.5909 C.ar    1  UNL1       -0.0003
     41 C          60.2382   86.0645    7.5267 C.ar    1  UNL1       -0.0029
@<TRIPOS>BOND
     1    17    18    1
     2    18    10    1
     3    10    11   ar
     4    11    12   ar
     5    12    13   ar
     6    13    14   ar
     7    14     1    1
     8     1     2   ar
     9     2     3    1
    10     2     4   ar
    11     4    19    1
    12    19    20    1
    13    20    21   ar
    14    21    22    1
    15    21    23   ar
    16    23    24   ar
    17    24    25   ar
    18    25    26   ar
    19    26    27    1
    20    27    28    1
    21    27    29    1
    22    27    30    1
    23     4     5   ar
    24     5     6    2
    25     5     7   ar
    26     7    31    1
    27    31    32    1
    28    32    33    1
    29    32    36    1
    30    36    37   ar
    31    37    38   ar
    32    38    39   ar
    33    39    40   ar
    34    40    41   ar
    35     7     8   ar
    36     8     9    2
    37    14    15   ar
    38    15    16    1
    39    15    10   ar
    40     8     1   ar
    41    26    20   ar
    42    41    36   ar
    43    33    34    1
    44    33    35    1
@<TRIPOS>MOLECULE
*****
 41 44 0 0 0
SMALL
GASTEIGER

@<TRIPOS>ATOM
      1 C          63.2571   88.1815   13.5980 C.ar    1  UNL1        0.0703
      2 C          63.9708   86.8729   13.7657 C.ar    1  UNL1        0.0465
      3 C          65.0953   86.7527   14.7512 C.3     1  UNL1        0.0503
      4 N          63.5601   85.6843   12.9478 N.ar    1  UNL1       -0.2806
      5 C          62.4356   85.8045   11.9624 C.ar    1  UNL1        0.3338
      6 O          62.0833   85.0966   11.3766 O.2     1  UNL1       -0.2462
      7 N          61.7219   87.1132   11.7947 N.ar    1  UNL1       -0.2470
      8 C          62.1326   88.3016   12.6126 C.ar    1  UNL1        0.2654
      9 O          61.4189   89.6103   12.4449 O.2     1  UNL1       -0.2668
     10 C          64.8350   91.6843   14.5932 C.ar    1  UNL1        0.1660
     11 C          64.4893   91.7469   16.0514 C.ar    1  UNL1        0.0392
     12 C          63.7329   90.6210   16.6919 C.ar    1  UNL1        0.0033
     13 C          63.3221   89.4326   15.8741 C.ar    1  UNL1        0.0026
     14 C          63.6678   89.3700   14.4159 C.ar    1  UNL1        0.0362
     15 C          64.4243   90.4959   13.7754 C.ar    1  UNL1        0.1739
     16 F          64.7700   90.4332   12.3171 F       1  UNL1       -0.2010
     17 C          66.8782   93.2887   14.5570 C.3     1  UNL1        0.2526
     18 O          65.5914   92.8102   13.9527 O.3     1  UNL1       -0.4692
     19 C          64.2738   84.3758   13.1155 C.3     1  UNL1        0.1391
     20 C          63.4896   83.1007   13.2117 C.ar    1  UNL1        0.0319
     21 C          63.5808   82.0797   12.1166 C.ar    1  UNL1        0.1379
     22 F          64.1188   82.1390   11.2948 F       1  UNL1       -0.2044
     23 C          62.7965   80.8046   12.2129 C.ar    1  UNL1        0.0294
     24 C          61.9211   80.5506   13.4041 C.ar    1  UNL1        0.0022
     25 C          61.8299   81.5717   14.4992 C.ar    1  UNL1        0.0037
     26 C          62.6141   82.8467   14.4030 C.ar    1  UNL1        0.0714
     27 C          62.5229   83.8678   15.4980 C.3     1  UNL1        0.4184
     28 F          62.4317   84.8888   16.5931 F       1  UNL1       -0.1659
     29 F          61.2298   84.3671   14.9248 F       1  UNL1       -0.1659
     30 F          63.8160   83.3684   16.0713 F       1  UNL1       -0.1659
     31 C          60.5975   87.2334   10.8093 C.3     1  UNL1        0.1334
     32 C          60.8869   87.5869    9.3806 C.3     1  UNL1        0.0968
     33 N          60.7936   89.0137    8.9273 N.3     1  UNL1       -0.3172
     34 H          61.0212   89.0707    7.9346 H       1  UNL1        0.1192
     35 H          61.4509   89.5834    9.4601 H       1  UNL1        0.1192
     36 C          61.2695   86.5135    8.4051 C.ar    1  UNL1       -0.0063
     37 C          62.6754   85.9914    8.3779 C.ar    1  UNL1       -0.0029
     38 C          63.0581   84.9181    7.4024 C.ar    1  UNL1       -0.0003
     39 C          62.0349   84.3669    6.4541 C.ar    1  UNL1       -0.0000
     40 C          60.6289   84.8891    6.4813 C.ar    1  UNL1       -0.0003
     41 C          60.2462   85.9624    7.4568 C.ar    1  UNL1       -0.0029
@<TRIPOS>BOND
     1    17    18    1
     2    18    10    1
     3    10    11   ar
     4    11    12   ar
     5    12    13   ar
     6    13    14   ar
     7    14     1    1
     8     1     2   ar
     9     2     3    1
    10     2     4   ar
    11     4    19    1
    12    19    20    1
    13    20    21   ar
    14    21    22    1
    15    21    23   ar
    16    23    24   ar
    17    24    25   ar
    18    25    26   ar
    19    26    27    1
    20    27    28    1
    21    27    29    1
    22    27    30    1
    23     4     5   ar
    24     5     6    2
    25     5     7   ar
    26     7    31    1
    27    31    32    1
    28    32    33    1
    29    32    36    1
    30    36    37   ar
    31    37    38   ar
    32    38    39   ar
    33    39    40   ar
    34    40    41   ar
    35     7     8   ar
    36     8     9    2
    37    14    15   ar
    38    15    16    1
    39    15    10   ar
    40     8     1   ar
    41    26    20   ar
    42    41    36   ar
    43    33    34    1
    44    33    35    1
@<TRIPOS>MOLECULE
*****
 41 44 0 0 0
SMALL
GASTEIGER

@<TRIPOS>ATOM
      1 C          62.2650   87.9356   10.8717 C.ar    1  UNL1        0.0703
      2 C          62.8839   87.0647   11.9245 C.ar    1  UNL1        0.0465
      3 C          62.6901   85.5781   11.8773 C.3     1  UNL1        0.0503
      4 N          63.6967   87.6805   13.0247 N.ar    1  UNL1       -0.2806
      5 C          63.8905   89.1672   13.0720 C.ar    1  UNL1        0.3338
      6 O          64.4001   89.6771   13.7419 O.2     1  UNL1       -0.2462
      7 N          63.2715   90.0381   12.0191 N.ar    1  UNL1       -0.2470
      8 C          62.4588   89.4223   10.9190 C.ar    1  UNL1        0.2654
      9 O          61.8399   90.2932    9.8661 O.2     1  UNL1       -0.2668
     10 C          61.3043   85.8390    7.6420 C.ar    1  UNL1        0.1660
     11 C          59.8269   86.0882    7.5713 C.ar    1  UNL1        0.0392
     12 C          59.1622   86.9533    8.6008 C.ar    1  UNL1        0.0033
     13 C          59.9748   87.5691    9.7009 C.ar    1  UNL1        0.0026
     14 C          61.4523   87.3198    9.7716 C.ar    1  UNL1        0.0362
     15 C          62.1170   86.4548    8.7421 C.ar    1  UNL1        0.1739
     16 F          63.5945   86.2055    8.8128 F       1  UNL1       -0.2010
     17 C          61.1604   83.9799    5.8328 C.3     1  UNL1        0.2526
     18 O          61.9691   84.9739    6.6125 O.3     1  UNL1       -0.4692
     19 C          64.3156   86.8097   14.0775 C.3     1  UNL1        0.1391
     20 C          63.6768   86.6993   15.4302 C.ar    1  UNL1        0.0319
     21 C          63.5447   87.9151   16.2987 C.ar    1  UNL1        0.1379
     22 F          63.8390   88.8297   16.0861 F       1  UNL1       -0.2044
     23 C          62.9059   87.8046   17.6514 C.ar    1  UNL1        0.0294
     24 C          62.3992   86.4784   18.1356 C.ar    1  UNL1        0.0022
     25 C          62.5313   85.2626   17.2670 C.ar    1  UNL1        0.0037
     26 C          63.1701   85.3730   15.9144 C.ar    1  UNL1        0.0714
     27 C          63.3022   84.1572   15.0458 C.3     1  UNL1        0.4184
     28 F          63.4343   82.9414   14.1773 F       1  UNL1       -0.1659
     29 F          61.8309   84.2032   14.7576 F       1  UNL1       -0.1659
     30 F          64.7735   84.1112   15.3340 F       1  UNL1       -0.1659
     31 C          63.4654   91.5248   12.0663 C.3     1  UNL1        0.1334
     32 C          64.7719   92.1248   11.6387 C.3     1  UNL1        0.0968
     33 N          64.9361   92.6468   10.2420 N.3     1  UNL1       -0.3172
     34 H          65.8798   93.0161   10.1258 H       1  UNL1        0.1192
     35 H          64.2573   93.3896   10.0747 H       1  UNL1        0.1192
     36 C          65.9143   92.2028   12.6076 C.ar    1  UNL1       -0.0063
     37 C          65.6744   92.6652   14.0142 C.ar    1  UNL1       -0.0029
     38 C          66.8168   92.7432   14.9832 C.ar    1  UNL1       -0.0003
     39 C          68.1990   92.3587   14.5455 C.ar    1  UNL1       -0.0000
     40 C          68.4390   91.8962   13.1389 C.ar    1  UNL1       -0.0003
     41 C          67.2966   91.8182   12.1699 C.ar    1  UNL1       -0.0029
@<TRIPOS>BOND
     1    17    18    1
     2    18    10    1
     3    10    11   ar
     4    11    12   ar
     5    12    13   ar
     6    13    14   ar
     7    14     1    1
     8     1     2   ar
     9     2     3    1
    10     2     4   ar
    11     4    19    1
    12    19    20    1
    13    20    21   ar
    14    21    22    1
    15    21    23   ar
    16    23    24   ar
    17    24    25   ar
    18    25    26   ar
    19    26    27    1
    20    27    28    1
    21    27    29    1
    22    27    30    1
    23     4     5   ar
    24     5     6    2
    25     5     7   ar
    26     7    31    1
    27    31    32    1
    28    32    33    1
    29    32    36    1
    30    36    37   ar
    31    37    38   ar
    32    38    39   ar
    33    39    40   ar
    34    40    41   ar
    35     7     8   ar
    36     8     9    2
    37    14    15   ar
    38    15    16    1
    39    15    10   ar
    40     8     1   ar
    41    26    20   ar
    42    41    36   ar
    43    33    34    1
    44    33    35    1
@<TRIPOS>MOLECULE
*****
 41 44 0 0 0
SMALL
GASTEIGER

@<TRIPOS>ATOM
      1 C          62.5600   87.2081   11.1124 C.ar    1  UNL1        0.0703
      2 C          62.6392   88.6813   11.3831 C.ar    1  UNL1        0.0465
      3 C          62.1308   89.6593   10.3657 C.3     1  UNL1        0.0503
      4 N          63.2268   89.1767   12.6713 N.ar    1  UNL1       -0.2806
      5 C          63.7353   88.1987   13.6887 C.ar    1  UNL1        0.3338
      6 O          64.1377   88.4081   14.5620 O.2     1  UNL1       -0.2462
      7 N          63.6560   86.7255   13.4179 N.ar    1  UNL1       -0.2470
      8 C          63.0684   86.2302   12.1298 C.ar    1  UNL1        0.2654
      9 O          62.9892   84.7569   11.8590 O.2     1  UNL1       -0.2668
     10 C          60.0030   86.6382    8.1312 C.ar    1  UNL1        0.1660
     11 C          60.7970   85.7222    7.2479 C.ar    1  UNL1        0.0392
     12 C          62.1787   85.3014    7.6527 C.ar    1  UNL1        0.0033
     13 C          62.7664   85.7967    8.9409 C.ar    1  UNL1        0.0026
     14 C          61.9723   86.7128    9.8242 C.ar    1  UNL1        0.0362
     15 C          60.5906   87.1335    9.4194 C.ar    1  UNL1        0.1739
     16 F          59.7966   88.0496   10.3027 F       1  UNL1       -0.2010
     17 C          58.4061   88.3861    7.0613 C.3     1  UNL1        0.2526
     18 O          58.6213   87.0590    7.7264 O.3     1  UNL1       -0.4692
     19 C          63.3060   90.6499   12.9420 C.3     1  UNL1        0.1391
     20 C          64.4933   91.4362   12.4710 C.ar    1  UNL1        0.0319
     21 C          64.6225   91.8042   11.0226 C.ar    1  UNL1        0.1379
     22 F          63.9943   91.5851   10.2975 F       1  UNL1       -0.2044
     23 C          65.8099   92.5905   10.5515 C.ar    1  UNL1        0.0294
     24 C          66.8681   93.0089   11.5289 C.ar    1  UNL1        0.0022
     25 C          66.7389   92.6409   12.9773 C.ar    1  UNL1        0.0037
     26 C          65.5516   91.8546   13.4484 C.ar    1  UNL1        0.0714
     27 C          65.4224   91.4866   14.8968 C.3     1  UNL1        0.4184
     28 F          65.2932   91.1186   16.3452 F       1  UNL1       -0.1659
     29 F          66.1558   90.2042   14.6364 F       1  UNL1       -0.1659
     30 F          64.6890   92.7689   15.1571 F       1  UNL1       -0.1659
     31 C          64.1645   85.7475   14.4354 C.3     1  UNL1        0.1334
     32 C          63.2099   84.8191   15.1258 C.3     1  UNL1        0.0968
     33 N          62.4290   85.2946   16.3150 N.3     1  UNL1       -0.3172
     34 H          61.8343   84.5391   16.6555 H       1  UNL1        0.1192
     35 H          61.8487   86.0889   16.0453 H       1  UNL1        0.1192
     36 C          63.0360   83.4152   14.6270 C.ar    1  UNL1       -0.0063
     37 C          64.2153   82.6577   14.0927 C.ar    1  UNL1       -0.0029
     38 C          64.0414   81.2537   13.5939 C.ar    1  UNL1       -0.0003
     39 C          62.6883   80.6074   13.6294 C.ar    1  UNL1       -0.0000
     40 C          61.5090   81.3649   14.1637 C.ar    1  UNL1       -0.0003
     41 C          61.6828   82.7688   14.6625 C.ar    1  UNL1       -0.0029
@<TRIPOS>BOND
     1    17    18    1
     2    18    10    1
     3    10    11   ar
     4    11    12   ar
     5    12    13   ar
     6    13    14   ar
     7    14     1    1
     8     1     2   ar
     9     2     3    1
    10     2     4   ar
    11     4    19    1
    12    19    20    1
    13    20    21   ar
    14    21    22    1
    15    21    23   ar
    16    23    24   ar
    17    24    25   ar
    18    25    26   ar
    19    26    27    1
    20    27    28    1
    21    27    29    1
    22    27    30    1
    23     4     5   ar
    24     5     6    2
    25     5     7   ar
    26     7    31    1
    27    31    32    1
    28    32    33    1
    29    32    36    1
    30    36    37   ar
    31    37    38   ar
    32    38    39   ar
    33    39    40   ar
    34    40    41   ar
    35     7     8   ar
    36     8     9    2
    37    14    15   ar
    38    15    16    1
    39    15    10   ar
    40     8     1   ar
    41    26    20   ar
    42    41    36   ar
    43    33    34    1
    44    33    35    1
