@<TRIPOS>MOLECULE
*****
 43 48 0 0 0
SMALL
GASTEIGER

@<TRIPOS>ATOM
      1 C          62.9775   85.0241   12.0902 C.3     1  UNL1        0.1631
      2 N          62.8541   83.7119   12.8063 N.ar    1  UNL1       -0.3047
      3 C          62.7329   83.5251   14.2897 C.ar    1  UNL1        0.1441
      4 N          62.6341   82.0539   14.5650 N.ar    1  UNL1       -0.2267
      5 C          62.6941   81.3315   13.2518 C.ar    1  UNL1        0.1010
      6 C          62.6425   79.8730   12.9053 C.ar    1  UNL1        0.0526
      7 C          62.7268   79.4393   11.4718 C.ar    1  UNL1        0.1690
      8 F          62.6752   77.9807   11.1253 F       1  UNL1       -0.2017
      9 C          62.8628   80.4640   10.3849 C.ar    1  UNL1        0.1689
     10 F          62.9472   80.0302    8.9514 F       1  UNL1       -0.2017
     11 C          62.9144   81.9225   10.7314 C.ar    1  UNL1        0.0507
     12 C          62.8300   82.3562   12.1648 C.ar    1  UNL1        0.0816
     13 C          62.7140   84.6176   15.3173 C.ar    1  UNL1        0.0342
     14 C          63.9830   85.0180   16.0097 C.ar    1  UNL1        0.0039
     15 C          63.9641   86.1105   17.0373 C.ar    1  UNL1        0.0115
     16 C          62.6763   86.8026   17.3726 C.ar    1  UNL1        0.0577
     17 CL         62.6574   87.8952   18.4002 Cl      1  UNL1       -0.0822
     18 C          61.4073   86.4022   16.6802 C.ar    1  UNL1        0.0115
     19 C          61.4261   85.3097   15.6526 C.ar    1  UNL1        0.0039
     20 C          62.5019   85.1531   10.6735 C.3     1  UNL1        0.0297
     21 C          63.3419   84.6236    9.5492 C.3     1  UNL1        0.0024
     22 C          62.8662   84.7526    8.1325 C.3     1  UNL1        0.0001
     23 C          61.5506   85.4111    7.8400 C.3     1  UNL1        0.0000
     24 C          60.7106   85.9407    8.9643 C.3     1  UNL1        0.0001
     25 C          61.1863   85.8117   10.3810 C.3     1  UNL1        0.0024
     26 O          64.6752   86.0089   13.7926 O.2     1  UNL1       -0.2727
     27 C          63.5766   86.2075   12.7909 C.2     1  UNL1        0.2469
     28 N          63.0771   87.5895   12.4897 N.am    1  UNL1       -0.2806
     29 H          62.3560   87.7199   11.8322 H       1  UNL1        0.1550
     30 C          63.6762   88.7727   13.1903 C.ar    1  UNL1        0.0784
     31 C          64.2813   88.6100   14.5532 C.ar    1  UNL1        0.0201
     32 C          64.8804   89.7933   15.2539 C.ar    1  UNL1        0.0383
     33 C          64.8745   91.1392   14.5918 C.ar    1  UNL1        0.1411
     34 C          64.2695   91.3018   13.2289 C.ar    1  UNL1        0.0678
     35 C          63.6703   90.1186   12.5281 C.ar    1  UNL1        0.1565
     36 F          63.0652   90.2813   11.1653 F       1  UNL1       -0.2028
     37 O          65.4737   92.3224   15.2924 O.3     1  UNL1       -0.4773
     38 C          66.9133   92.6779   15.0665 C.3     1  UNL1        0.1646
     39 C          68.3794   92.8556   15.3295 C.3     1  UNL1        0.0495
     40 C          67.4892   92.2895   16.3960 C.3     1  UNL1        0.0495
     41 C          66.8374   93.1898   13.6586 C.2     1  UNL1        0.0863
     42 O          67.5306   92.4498   12.5532 O.co2   1  UNL1       -0.5457
     43 O          66.0685   94.4417   13.3561 O.co2   1  UNL1       -0.5457
@<TRIPOS>UNITY_ATOM_ATTR
42 1
charge -1
@<TRIPOS>BOND
     1    26    27    2
     2    27    28   am
     3    28    30    1
     4    30    31   ar
     5    31    32   ar
     6    32    33   ar
     7    33    37    1
     8    37    38    1
     9    38    41    1
    10    41    42   ar
    11    41    43   ar
    12    38    39    1
    13    39    40    1
    14    33    34   ar
    15    34    35   ar
    16    35    36    1
    17    27     1    1
    18     1    20    1
    19    20    21    1
    20    21    22    1
    21    22    23    1
    22    23    24    1
    23    24    25    1
    24     1     2    1
    25     2     3   ar
    26     3    13    1
    27    13    14   ar
    28    14    15   ar
    29    15    16   ar
    30    16    17    1
    31    16    18   ar
    32    18    19   ar
    33     3     4   ar
    34     4     5   ar
    35     5     6   ar
    36     6     7   ar
    37     7     8    1
    38     7     9   ar
    39     9    10    1
    40     9    11   ar
    41    11    12   ar
    42    35    30   ar
    43    25    20    1
    44    12     2   ar
    45    40    38    1
    46    19    13   ar
    47    12     5   ar
    48    28    29    1
@<TRIPOS>MOLECULE
*****
 43 48 0 0 0
SMALL
GASTEIGER

@<TRIPOS>ATOM
      1 C          62.8714   85.5034   11.2890 C.3     1  UNL1        0.1631
      2 N          63.2075   86.0217   12.6559 N.ar    1  UNL1       -0.3047
      3 C          63.3662   85.1954   13.8976 C.ar    1  UNL1        0.1441
      4 N          63.7007   86.1203   15.0302 N.ar    1  UNL1       -0.2267
      5 C          63.7485   87.5182   14.4884 C.ar    1  UNL1        0.1010
      6 C          64.0303   88.8387   15.1417 C.ar    1  UNL1        0.0526
      7 C          64.0073   90.0983   14.3275 C.ar    1  UNL1        0.1690
      8 F          64.2891   91.4189   14.9808 F       1  UNL1       -0.2017
      9 C          63.7025   90.0374   12.8601 C.ar    1  UNL1        0.1689
     10 F          63.6794   91.2971   12.0459 F       1  UNL1       -0.2017
     11 C          63.4207   88.7169   12.2068 C.ar    1  UNL1        0.0507
     12 C          63.4437   87.4573   13.0210 C.ar    1  UNL1        0.0816
     13 C          63.2168   83.7057   13.9905 C.ar    1  UNL1        0.0342
     14 C          61.8862   83.1055   14.3357 C.ar    1  UNL1        0.0039
     15 C          61.7368   81.6159   14.4285 C.ar    1  UNL1        0.0115
     16 C          62.9180   80.7265   14.1762 C.ar    1  UNL1        0.0577
     17 CL         62.7685   79.2368   14.2691 Cl      1  UNL1       -0.0822
     18 C          64.2486   81.3267   13.8310 C.ar    1  UNL1        0.0115
     19 C          64.3981   82.8163   13.7382 C.ar    1  UNL1        0.0039
     20 C          63.1165   84.0625   10.9520 C.3     1  UNL1        0.0297
     21 C          62.0325   83.0477   11.1642 C.3     1  UNL1        0.0024
     22 C          62.2778   81.6067   10.8272 C.3     1  UNL1        0.0001
     23 C          63.6069   81.1806   10.2779 C.3     1  UNL1        0.0000
     24 C          64.6910   82.1954   10.0656 C.3     1  UNL1        0.0001
     25 C          64.4457   83.6363   10.4027 C.3     1  UNL1        0.0024
     26 O          63.1815   87.0637    9.2348 O.2     1  UNL1       -0.2727
     27 C          62.2901   86.4261   10.2589 C.2     1  UNL1        0.2469
     28 N          60.8175   86.7112   10.2531 N.am    1  UNL1       -0.2806
     29 H          60.2324   86.2928   10.9253 H       1  UNL1        0.1550
     30 C          60.2363   87.6339    9.2231 C.ar    1  UNL1        0.0784
     31 C          60.2311   89.1150    9.4607 C.ar    1  UNL1        0.0201
     32 C          59.6500   90.0377    8.4307 C.ar    1  UNL1        0.0383
     33 C          59.0740   89.4794    7.1632 C.ar    1  UNL1        0.1411
     34 C          59.0792   87.9983    6.9257 C.ar    1  UNL1        0.0678
     35 C          59.6604   87.0756    7.9556 C.ar    1  UNL1        0.1565
     36 F          59.6655   85.5945    7.7181 F       1  UNL1       -0.2028
     37 O          58.4929   90.4021    6.1332 O.3     1  UNL1       -0.4773
     38 C          59.3943   91.1043    5.1615 C.3     1  UNL1        0.1646
     39 C          60.6441   91.5086    4.4372 C.3     1  UNL1        0.0495
     40 C          60.7104   90.4901    5.5364 C.3     1  UNL1        0.0495
     41 C          58.3914   91.9625    4.4491 C.2     1  UNL1        0.0863
     42 O          56.9960   92.0874    4.9850 O.co2   1  UNL1       -0.5457
     43 O          58.7837   92.6957    3.2007 O.co2   1  UNL1       -0.5457
@<TRIPOS>UNITY_ATOM_ATTR
42 1
charge -1
@<TRIPOS>BOND
     1    26    27    2
     2    27    28   am
     3    28    30    1
     4    30    31   ar
     5    31    32   ar
     6    32    33   ar
     7    33    37    1
     8    37    38    1
     9    38    41    1
    10    41    42   ar
    11    41    43   ar
    12    38    39    1
    13    39    40    1
    14    33    34   ar
    15    34    35   ar
    16    35    36    1
    17    27     1    1
    18     1    20    1
    19    20    21    1
    20    21    22    1
    21    22    23    1
    22    23    24    1
    23    24    25    1
    24     1     2    1
    25     2     3   ar
    26     3    13    1
    27    13    14   ar
    28    14    15   ar
    29    15    16   ar
    30    16    17    1
    31    16    18   ar
    32    18    19   ar
    33     3     4   ar
    34     4     5   ar
    35     5     6   ar
    36     6     7   ar
    37     7     8    1
    38     7     9   ar
    39     9    10    1
    40     9    11   ar
    41    11    12   ar
    42    35    30   ar
    43    25    20    1
    44    12     2   ar
    45    40    38    1
    46    19    13   ar
    47    12     5   ar
    48    28    29    1
@<TRIPOS>MOLECULE
*****
 43 48 0 0 0
SMALL
GASTEIGER

@<TRIPOS>ATOM
      1 C          62.8690   85.5358   11.3324 C.3     1  UNL1        0.1631
      2 N          63.2071   86.0439   12.7026 N.ar    1  UNL1       -0.3047
      3 C          63.3572   85.2096   13.9401 C.ar    1  UNL1        0.1441
      4 N          63.6974   86.1256   15.0782 N.ar    1  UNL1       -0.2267
      5 C          63.7576   87.5259   14.5440 C.ar    1  UNL1        0.1010
      6 C          64.0491   88.8406   15.2049 C.ar    1  UNL1        0.0526
      7 C          64.0376   90.1047   14.3975 C.ar    1  UNL1        0.1690
      8 F          64.3292   91.4194   15.0585 F       1  UNL1       -0.2017
      9 C          63.7346   90.0543   12.9293 C.ar    1  UNL1        0.1689
     10 F          63.7232   91.3184   12.1220 F       1  UNL1       -0.2017
     11 C          63.4431   88.7396   12.2685 C.ar    1  UNL1        0.0507
     12 C          63.4546   87.4755   13.0758 C.ar    1  UNL1        0.0816
     13 C          63.1955   83.7207   14.0246 C.ar    1  UNL1        0.0342
     14 C          64.3693   82.8230   13.7668 C.ar    1  UNL1        0.0039
     15 C          64.2076   81.3342   13.8513 C.ar    1  UNL1        0.0115
     16 C          62.8722   80.7431   14.1937 C.ar    1  UNL1        0.0577
     17 CL         62.7106   79.2541   14.2782 Cl      1  UNL1       -0.0822
     18 C          61.6985   81.6408   14.4516 C.ar    1  UNL1        0.0115
     19 C          61.8601   83.1296   14.3670 C.ar    1  UNL1        0.0039
     20 C          63.1241   84.1001   10.9807 C.3     1  UNL1        0.0297
     21 C          64.4535   83.6901   10.4199 C.3     1  UNL1        0.0024
     22 C          64.7086   82.2544   10.0682 C.3     1  UNL1        0.0001
     23 C          63.6344   81.2287   10.2774 C.3     1  UNL1        0.0000
     24 C          62.3049   81.6386   10.8383 C.3     1  UNL1        0.0001
     25 C          62.0498   83.0743   11.1899 C.3     1  UNL1        0.0024
     26 O          63.1659   87.1734    9.3373 O.2     1  UNL1       -0.2727
     27 C          62.2757   86.4634   10.3137 C.2     1  UNL1        0.2469
     28 N          60.7921   86.6809   10.2715 N.am    1  UNL1       -0.2806
     29 H          60.2078   86.2149   10.9124 H       1  UNL1        0.1550
     30 C          60.1989   87.6085    9.2529 C.ar    1  UNL1        0.0784
     31 C          59.5074   87.0514    8.0440 C.ar    1  UNL1        0.0201
     32 C          58.9141   87.9790    7.0253 C.ar    1  UNL1        0.0383
     33 C          59.0123   89.4636    7.2155 C.ar    1  UNL1        0.1411
     34 C          59.7038   90.0207    8.4245 C.ar    1  UNL1        0.0678
     35 C          60.2971   89.0932    9.4432 C.ar    1  UNL1        0.1565
     36 F          60.9885   89.6503   10.6521 F       1  UNL1       -0.2028
     37 O          58.4191   90.3912    6.1969 O.3     1  UNL1       -0.4773
     38 C          59.3055   91.0731    5.1973 C.3     1  UNL1        0.1646
     39 C          60.5431   91.4581    4.4423 C.3     1  UNL1        0.0495
     40 C          60.6247   90.4551    5.5547 C.3     1  UNL1        0.0495
     41 C          58.2942   91.9279    4.4927 C.2     1  UNL1        0.0863
     42 O          56.8851   91.9969    5.0023 O.co2   1  UNL1       -0.5457
     43 O          58.6919   92.7137    3.2784 O.co2   1  UNL1       -0.5457
@<TRIPOS>UNITY_ATOM_ATTR
42 1
charge -1
@<TRIPOS>BOND
     1    26    27    2
     2    27    28   am
     3    28    30    1
     4    30    31   ar
     5    31    32   ar
     6    32    33   ar
     7    33    37    1
     8    37    38    1
     9    38    41    1
    10    41    42   ar
    11    41    43   ar
    12    38    39    1
    13    39    40    1
    14    33    34   ar
    15    34    35   ar
    16    35    36    1
    17    27     1    1
    18     1    20    1
    19    20    21    1
    20    21    22    1
    21    22    23    1
    22    23    24    1
    23    24    25    1
    24     1     2    1
    25     2     3   ar
    26     3    13    1
    27    13    14   ar
    28    14    15   ar
    29    15    16   ar
    30    16    17    1
    31    16    18   ar
    32    18    19   ar
    33     3     4   ar
    34     4     5   ar
    35     5     6   ar
    36     6     7   ar
    37     7     8    1
    38     7     9   ar
    39     9    10    1
    40     9    11   ar
    41    11    12   ar
    42    35    30   ar
    43    25    20    1
    44    12     2   ar
    45    40    38    1
    46    19    13   ar
    47    12     5   ar
    48    28    29    1
@<TRIPOS>MOLECULE
*****
 43 48 0 0 0
SMALL
GASTEIGER

@<TRIPOS>ATOM
      1 C          59.5226   94.5148    0.0260 C.3     1  UNL1        0.1631
      2 N          60.7473   94.5822   -0.8375 N.ar    1  UNL1       -0.3047
      3 C          60.8121   94.2638   -2.3019 C.ar    1  UNL1        0.1441
      4 N          62.2269   94.4647   -2.7578 N.ar    1  UNL1       -0.2267
      5 C          63.0365   94.9072   -1.5751 C.ar    1  UNL1        0.1010
      6 C          64.4883   95.2534   -1.4255 C.ar    1  UNL1        0.0526
      7 C          65.0257   95.6723   -0.0892 C.ar    1  UNL1        0.1690
      8 F          66.4776   96.0185    0.0604 F       1  UNL1       -0.2017
      9 C          64.1112   95.7449    1.0976 C.ar    1  UNL1        0.1689
     10 F          64.6486   96.1638    2.4340 F       1  UNL1       -0.2017
     11 C          62.6594   95.3987    0.9480 C.ar    1  UNL1        0.0507
     12 C          62.1221   94.9799   -0.3883 C.ar    1  UNL1        0.0816
     13 C          59.6636   93.8221   -3.1598 C.ar    1  UNL1        0.0342
     14 C          59.0330   92.4797   -2.9357 C.ar    1  UNL1        0.0039
     15 C          57.8846   92.0380   -3.7936 C.ar    1  UNL1        0.0115
     16 C          57.3668   92.9386   -4.8755 C.ar    1  UNL1        0.0577
     17 CL         56.2183   92.4969   -5.7334 Cl      1  UNL1       -0.0822
     18 C          57.9974   94.2811   -5.0996 C.ar    1  UNL1        0.0115
     19 C          59.1458   94.7228   -4.2418 C.ar    1  UNL1        0.0039
     20 C          58.1963   94.9563   -0.5177 C.3     1  UNL1        0.0297
     21 C          57.1336   93.9413   -0.8187 C.3     1  UNL1        0.0024
     22 C          55.8072   94.3828   -1.3624 C.3     1  UNL1        0.0001
     23 C          55.5433   95.8392   -1.6052 C.3     1  UNL1        0.0000
     24 C          56.6059   96.8543   -1.3042 C.3     1  UNL1        0.0001
     25 C          57.9324   96.4128   -0.7605 C.3     1  UNL1        0.0024
     26 O          60.0206   94.9370    2.5408 O.2     1  UNL1       -0.2727
     27 C          59.6244   94.0060    1.4335 C.2     1  UNL1        0.2469
     28 N          59.3301   92.5660    1.7335 N.am    1  UNL1       -0.2806
     29 H          59.0700   91.9550    1.0067 H       1  UNL1        0.1550
     30 C          59.4319   92.0573    3.1409 C.ar    1  UNL1        0.0784
     31 C          58.1936   91.8991    3.9725 C.ar    1  UNL1        0.0201
     32 C          58.2953   91.3903    5.3800 C.ar    1  UNL1        0.0383
     33 C          59.6353   91.0397    5.9557 C.ar    1  UNL1        0.1411
     34 C          60.8736   91.1979    5.1240 C.ar    1  UNL1        0.0678
     35 C          60.7719   91.7066    3.7166 C.ar    1  UNL1        0.1565
     36 F          62.0101   91.8648    2.8849 F       1  UNL1       -0.2028
     37 O          59.7372   90.5309    7.3631 O.3     1  UNL1       -0.4773
     38 C          59.7190   89.0550    7.6301 C.3     1  UNL1        0.1646
     39 C          59.4704   87.5893    7.4301 C.3     1  UNL1        0.0495
     40 C          59.0491   88.5719    6.3780 C.3     1  UNL1        0.0495
     41 C          60.3827   89.0254    8.9749 C.2     1  UNL1        0.0863
     42 O          60.0836   90.0955    9.9826 O.co2   1  UNL1       -0.5457
     43 O          61.3455   87.9257    9.3122 O.co2   1  UNL1       -0.5457
@<TRIPOS>UNITY_ATOM_ATTR
42 1
charge -1
@<TRIPOS>BOND
     1    26    27    2
     2    27    28   am
     3    28    30    1
     4    30    31   ar
     5    31    32   ar
     6    32    33   ar
     7    33    37    1
     8    37    38    1
     9    38    41    1
    10    41    42   ar
    11    41    43   ar
    12    38    39    1
    13    39    40    1
    14    33    34   ar
    15    34    35   ar
    16    35    36    1
    17    27     1    1
    18     1    20    1
    19    20    21    1
    20    21    22    1
    21    22    23    1
    22    23    24    1
    23    24    25    1
    24     1     2    1
    25     2     3   ar
    26     3    13    1
    27    13    14   ar
    28    14    15   ar
    29    15    16   ar
    30    16    17    1
    31    16    18   ar
    32    18    19   ar
    33     3     4   ar
    34     4     5   ar
    35     5     6   ar
    36     6     7   ar
    37     7     8    1
    38     7     9   ar
    39     9    10    1
    40     9    11   ar
    41    11    12   ar
    42    35    30   ar
    43    25    20    1
    44    12     2   ar
    45    40    38    1
    46    19    13   ar
    47    12     5   ar
    48    28    29    1
@<TRIPOS>MOLECULE
*****
 43 48 0 0 0
SMALL
GASTEIGER

@<TRIPOS>ATOM
      1 C          63.0832   89.1951   12.3410 C.3     1  UNL1        0.1631
      2 N          63.9489   90.1937   13.0504 N.ar    1  UNL1       -0.3047
      3 C          64.3070   90.1729   14.5069 C.ar    1  UNL1        0.1441
      4 N          65.1879   91.3548   14.7845 N.ar    1  UNL1       -0.2267
      5 C          65.3742   92.1060   13.4996 C.ar    1  UNL1        0.1010
      6 C          66.1422   93.3508   13.1670 C.ar    1  UNL1        0.0526
      7 C          66.1445   93.8780   11.7627 C.ar    1  UNL1        0.1690
      8 F          66.9126   95.1229   11.4302 F       1  UNL1       -0.2017
      9 C          65.3788   93.1604   10.6910 C.ar    1  UNL1        0.1689
     10 F          65.3811   93.6876    9.2866 F       1  UNL1       -0.2017
     11 C          64.6108   91.9156   11.0235 C.ar    1  UNL1        0.0507
     12 C          64.6085   91.3884   12.4279 C.ar    1  UNL1        0.0816
     13 C          63.8622   89.1499   15.5096 C.ar    1  UNL1        0.0342
     14 C          64.1897   87.7013   15.2989 C.ar    1  UNL1        0.0039
     15 C          63.7450   86.6783   16.3017 C.ar    1  UNL1        0.0115
     16 C          62.9727   87.1038   17.5151 C.ar    1  UNL1        0.0577
     17 CL         62.5280   86.0806   18.5179 Cl      1  UNL1       -0.0822
     18 C          62.6452   88.5523   17.7258 C.ar    1  UNL1        0.0115
     19 C          63.0899   89.5754   16.7231 C.ar    1  UNL1        0.0039
     20 C          61.8862   89.6577   11.5646 C.3     1  UNL1        0.0297
     21 C          61.9259   89.6759   10.0652 C.3     1  UNL1        0.0024
     22 C          60.7288   90.1386    9.2888 C.3     1  UNL1        0.0001
     23 C          59.4919   90.5831   10.0116 C.3     1  UNL1        0.0000
     24 C          59.4521   90.5649   11.5110 C.3     1  UNL1        0.0001
     25 C          60.6492   90.1022   12.2874 C.3     1  UNL1        0.0024
     26 O          64.5946   87.2681   13.2086 O.2     1  UNL1       -0.2727
     27 C          63.4146   87.7336   12.4081 C.2     1  UNL1        0.2469
     28 N          62.5658   86.7377   11.6747 N.am    1  UNL1       -0.2806
     29 H          61.7913   87.0432   11.1494 H       1  UNL1        0.1550
     30 C          62.8972   85.2763   11.7419 C.ar    1  UNL1        0.0784
     31 C          62.8583   84.5582   13.0582 C.ar    1  UNL1        0.0201
     32 C          63.1897   83.0967   13.1255 C.ar    1  UNL1        0.0383
     33 C          63.5601   82.3535   11.8763 C.ar    1  UNL1        0.1411
     34 C          63.5990   83.0717   10.5600 C.ar    1  UNL1        0.0678
     35 C          63.2676   84.5330   10.4927 C.ar    1  UNL1        0.1565
     36 F          63.3065   85.2511    9.1764 F       1  UNL1       -0.2028
     37 O          63.8915   80.8921   11.9435 O.3     1  UNL1       -0.4773
     38 C          62.8148   79.8920   12.2446 C.3     1  UNL1        0.1646
     39 C          61.7610   79.1407   13.0028 C.3     1  UNL1        0.0495
     40 C          62.5065   80.2610   13.6654 C.3     1  UNL1        0.0495
     41 C          62.7491   79.1757   10.9284 C.2     1  UNL1        0.0863
     42 O          62.7133   77.6765   10.8914 O.co2   1  UNL1       -0.5457
     43 O          62.7193   79.9584    9.6491 O.co2   1  UNL1       -0.5457
@<TRIPOS>UNITY_ATOM_ATTR
42 1
charge -1
@<TRIPOS>BOND
     1    26    27    2
     2    27    28   am
     3    28    30    1
     4    30    31   ar
     5    31    32   ar
     6    32    33   ar
     7    33    37    1
     8    37    38    1
     9    38    41    1
    10    41    42   ar
    11    41    43   ar
    12    38    39    1
    13    39    40    1
    14    33    34   ar
    15    34    35   ar
    16    35    36    1
    17    27     1    1
    18     1    20    1
    19    20    21    1
    20    21    22    1
    21    22    23    1
    22    23    24    1
    23    24    25    1
    24     1     2    1
    25     2     3   ar
    26     3    13    1
    27    13    14   ar
    28    14    15   ar
    29    15    16   ar
    30    16    17    1
    31    16    18   ar
    32    18    19   ar
    33     3     4   ar
    34     4     5   ar
    35     5     6   ar
    36     6     7   ar
    37     7     8    1
    38     7     9   ar
    39     9    10    1
    40     9    11   ar
    41    11    12   ar
    42    35    30   ar
    43    25    20    1
    44    12     2   ar
    45    40    38    1
    46    19    13   ar
    47    12     5   ar
    48    28    29    1
