@<TRIPOS>MOLECULE
*****
 38 42 0 0 0
SMALL
GASTEIGER

@<TRIPOS>ATOM
      1 C          64.5800   91.0456   12.7584 C.3     1  UNL1        0.1524
      2 C          64.8109   91.6903   11.4238 C.3     1  UNL1        0.0353
      3 C          65.5251   92.9892   11.6539 C.3     1  UNL1        0.0443
      4 C          65.7356   93.1472   13.1307 C.3     1  UNL1        0.0982
      5 N          65.1515   91.9460   13.8133 N.am    1  UNL1       -0.2723
      6 C          65.1406   91.6900   15.2912 C.2     1  UNL1        0.2320
      7 O          64.5168   90.4373   15.8309 O.2     1  UNL1       -0.2744
      8 C          65.9536   93.9596   10.5935 C.ar    1  UNL1       -0.0208
      9 C          65.3647   95.3387   10.5567 C.ar    1  UNL1       -0.0042
     10 C          65.7932   96.3092    9.4962 C.ar    1  UNL1       -0.0003
     11 C          66.8106   95.9006    8.4726 C.ar    1  UNL1       -0.0000
     12 C          67.3995   94.5215    8.5094 C.ar    1  UNL1       -0.0003
     13 C          66.9710   93.5510    9.5698 C.ar    1  UNL1       -0.0042
     14 O          62.4752   89.5352   12.5617 O.2     1  UNL1       -0.2730
     15 C          63.8975   89.7312   12.9963 C.2     1  UNL1        0.2442
     16 N          64.6371   88.6129   13.6687 N.am    1  UNL1       -0.2826
     17 H          65.5705   88.7415   13.9540 H       1  UNL1        0.1549
     18 C          63.9545   87.2985   13.9066 C.ar    1  UNL1        0.0505
     19 C          63.2160   86.6238   12.7889 C.ar    1  UNL1        0.0178
     20 C          62.5335   85.3094   13.0268 C.ar    1  UNL1        0.0388
     21 C          62.5895   84.6698   14.3824 C.ar    1  UNL1        0.1454
     22 C          63.3280   85.3445   15.5001 C.ar    1  UNL1        0.0388
     23 C          64.0105   86.6588   15.2622 C.ar    1  UNL1        0.0178
     24 O          61.9069   83.3554   14.6203 O.3     1  UNL1       -0.4535
     25 C          62.1520   82.2039   13.6907 C.ar    1  UNL1        0.1454
     26 C          62.6656   82.4557   12.3041 C.ar    1  UNL1        0.0398
     27 C          62.9107   81.3042   11.3745 C.ar    1  UNL1        0.0328
     28 C          62.6422   79.9010   11.8316 C.ar    1  UNL1        0.1403
     29 F          62.8873   78.7496   10.9021 F       1  UNL1       -0.2042
     30 C          62.1287   79.6493   13.2183 C.ar    1  UNL1        0.0328
     31 C          61.8836   80.8007   14.1479 C.ar    1  UNL1        0.0398
     32 C          65.7537   92.6869   16.2295 C.3     1  UNL1        0.1303
     33 C          67.2230   92.9801   16.1572 C.ar    1  UNL1        0.0634
     34 C          68.3277   91.9664   16.2035 C.ar    1  UNL1        0.1136
     35 N          69.6330   92.6982   16.1008 N.ar    1  UNL1       -0.2229
     36 C          69.3350   94.1642   15.9909 C.ar    1  UNL1        0.1748
     37 N          67.8456   94.3384   16.0258 N.ar    1  UNL1       -0.3378
     38 H          67.3616   95.1940   15.9719 H       1  UNL1        0.1672
@<TRIPOS>BOND
     1    14    15    2
     2    15    16   am
     3    16    18    1
     4    18    19   ar
     5    19    20   ar
     6    20    21   ar
     7    21    24    1
     8    24    25    1
     9    25    26   ar
    10    26    27   ar
    11    27    28   ar
    12    28    29    1
    13    28    30   ar
    14    30    31   ar
    15    21    22   ar
    16    22    23   ar
    17     1    15    1
    18     1     2    1
    19     2     3    1
    20     3     8    1
    21     8     9   ar
    22     9    10   ar
    23    10    11   ar
    24    11    12   ar
    25    12    13   ar
    26     3     4    1
    27     4     5    1
    28     5     6   am
    29     6     7    2
    30     6    32    1
    31    32    33    1
    32    33    34   ar
    33    34    35   ar
    34    35    36   ar
    35    36    37   ar
    36    23    18   ar
    37     5     1    1
    38    37    33   ar
    39    31    25   ar
    40    13     8   ar
    41    16    17    1
    42    37    38    1
@<TRIPOS>MOLECULE
*****
 38 42 0 0 0
SMALL
GASTEIGER

@<TRIPOS>ATOM
      1 C          62.3769   85.9208   11.3818 C.3     1  UNL1        0.1524
      2 C          62.1702   84.4360   11.4319 C.3     1  UNL1        0.0353
      3 C          62.7663   83.9280   12.7113 C.3     1  UNL1        0.0443
      4 C          63.3413   85.0989   13.4518 C.3     1  UNL1        0.0982
      5 N          63.1006   86.3306   12.6301 N.am    1  UNL1       -0.2723
      6 C          63.5115   87.7268   12.9930 C.2     1  UNL1        0.2320
      7 O          63.2007   88.8648   12.0665 O.2     1  UNL1       -0.2744
      8 C          62.7843   82.4998   13.1697 C.ar    1  UNL1       -0.0208
      9 C          64.0921   81.7955   13.3783 C.ar    1  UNL1       -0.0042
     10 C          64.1100   80.3673   13.8366 C.ar    1  UNL1       -0.0003
     11 C          62.8201   79.6436   14.0864 C.ar    1  UNL1       -0.0000
     12 C          61.5123   80.3480   13.8778 C.ar    1  UNL1       -0.0003
     13 C          61.4944   81.7761   13.4195 C.ar    1  UNL1       -0.0042
     14 O          62.9575   87.4875    9.3922 O.2     1  UNL1       -0.2730
     15 C          61.9369   86.8354   10.2772 C.2     1  UNL1        0.2442
     16 N          60.4765   87.0978   10.0577 N.am    1  UNL1       -0.2826
     17 H          59.8067   86.6698   10.6385 H       1  UNL1        0.1549
     18 C          60.0365   88.0123    8.9530 C.ar    1  UNL1        0.0505
     19 C          60.2345   89.4936    9.0821 C.ar    1  UNL1        0.0178
     20 C          59.7946   90.4080    7.9775 C.ar    1  UNL1        0.0388
     21 C          59.1567   89.8413    6.7439 C.ar    1  UNL1        0.1454
     22 C          58.9587   88.3600    6.6148 C.ar    1  UNL1        0.0388
     23 C          59.3987   87.4456    7.7194 C.ar    1  UNL1        0.0178
     24 O          58.7167   90.7558    5.6392 O.3     1  UNL1       -0.4535
     25 C          59.7295   91.3328    4.6951 C.ar    1  UNL1        0.1454
     26 C          61.1335   90.8050    4.6870 C.ar    1  UNL1        0.0398
     27 C          62.1463   91.3820    3.7428 C.ar    1  UNL1        0.0328
     28 C          61.7550   92.4868    2.8068 C.ar    1  UNL1        0.1403
     29 F          62.7677   93.0638    1.8627 F       1  UNL1       -0.2042
     30 C          60.3509   93.0147    2.8149 C.ar    1  UNL1        0.0328
     31 C          59.3382   92.4377    3.7590 C.ar    1  UNL1        0.0398
     32 C          64.2332   87.9851   14.2824 C.3     1  UNL1        0.1303
     33 C          64.2122   89.3553   14.8922 C.ar    1  UNL1        0.0634
     34 C          63.3371   89.8028   16.0253 C.ar    1  UNL1        0.1136
     35 N          63.6469   91.2428   16.3094 N.ar    1  UNL1       -0.2229
     36 C          64.7133   91.6851   15.3519 C.ar    1  UNL1        0.1748
     37 N          65.0628   90.5186   14.4760 N.ar    1  UNL1       -0.3378
     38 H          65.7328   90.5169   13.7547 H       1  UNL1        0.1672
@<TRIPOS>BOND
     1    14    15    2
     2    15    16   am
     3    16    18    1
     4    18    19   ar
     5    19    20   ar
     6    20    21   ar
     7    21    24    1
     8    24    25    1
     9    25    26   ar
    10    26    27   ar
    11    27    28   ar
    12    28    29    1
    13    28    30   ar
    14    30    31   ar
    15    21    22   ar
    16    22    23   ar
    17     1    15    1
    18     1     2    1
    19     2     3    1
    20     3     8    1
    21     8     9   ar
    22     9    10   ar
    23    10    11   ar
    24    11    12   ar
    25    12    13   ar
    26     3     4    1
    27     4     5    1
    28     5     6   am
    29     6     7    2
    30     6    32    1
    31    32    33    1
    32    33    34   ar
    33    34    35   ar
    34    35    36   ar
    35    36    37   ar
    36    23    18   ar
    37     5     1    1
    38    37    33   ar
    39    31    25   ar
    40    13     8   ar
    41    16    17    1
    42    37    38    1
@<TRIPOS>MOLECULE
*****
 38 42 0 0 0
SMALL
GASTEIGER

@<TRIPOS>ATOM
      1 C          60.7779   87.7021    8.8757 C.3     1  UNL1        0.1524
      2 C          61.3881   86.3325    8.8321 C.3     1  UNL1        0.0353
      3 C          61.8428   85.9833   10.2183 C.3     1  UNL1        0.0443
      4 C          61.5136   87.1372   11.1185 C.3     1  UNL1        0.0982
      5 N          60.8555   88.1994   10.2888 N.am    1  UNL1       -0.2723
      6 C          60.3617   89.5260   10.7848 C.2     1  UNL1        0.2320
      7 O          59.7210   90.4917    9.8325 O.2     1  UNL1       -0.2744
      8 C          62.5095   84.7048   10.6317 C.ar    1  UNL1       -0.0208
      9 C          62.2796   84.1492   12.0059 C.ar    1  UNL1       -0.0042
     10 C          62.9463   82.8708   12.4192 C.ar    1  UNL1       -0.0003
     11 C          63.8430   82.1478   11.4584 C.ar    1  UNL1       -0.0000
     12 C          64.0730   82.7034   10.0841 C.ar    1  UNL1       -0.0003
     13 C          63.4062   83.9819    9.6708 C.ar    1  UNL1       -0.0042
     14 O          58.9894   87.8978    7.0014 O.2     1  UNL1       -0.2730
     15 C          60.1929   88.4441    7.7107 C.2     1  UNL1        0.2442
     16 N          60.8114   89.7325    7.2550 N.am    1  UNL1       -0.2826
     17 H          61.6012   90.0910    7.7206 H       1  UNL1        0.1549
     18 C          60.2263   90.4745    6.0900 C.ar    1  UNL1        0.0505
     19 C          61.1257   91.0239    5.0226 C.ar    1  UNL1        0.0178
     20 C          60.5406   91.7658    3.8577 C.ar    1  UNL1        0.0388
     21 C          59.0562   91.9584    3.7601 C.ar    1  UNL1        0.1454
     22 C          58.1569   91.4091    4.8275 C.ar    1  UNL1        0.0388
     23 C          58.7419   90.6671    5.9924 C.ar    1  UNL1        0.0178
     24 O          58.4712   92.7005    2.5951 O.3     1  UNL1       -0.4535
     25 C          59.3637   93.1918    1.4942 C.ar    1  UNL1        0.1454
     26 C          59.5649   92.3583    0.2634 C.ar    1  UNL1        0.0398
     27 C          60.4575   92.8497   -0.8375 C.ar    1  UNL1        0.0328
     28 C          61.1487   94.1745   -0.7077 C.ar    1  UNL1        0.1403
     29 F          62.0412   94.6658   -1.8086 F       1  UNL1       -0.2042
     30 C          60.9475   95.0080    0.5231 C.ar    1  UNL1        0.0328
     31 C          60.0550   94.5167    1.6240 C.ar    1  UNL1        0.0398
     32 C          60.5085   89.8870   12.2334 C.3     1  UNL1        0.1303
     33 C          61.8685   90.1598   12.8043 C.ar    1  UNL1        0.0634
     34 C          63.0480   90.7013   12.0523 C.ar    1  UNL1        0.1136
     35 N          64.1963   90.8151   13.0108 N.ar    1  UNL1       -0.2229
     36 C          63.7263   90.3439   14.3550 C.ar    1  UNL1        0.1748
     37 N          62.2877   89.9389   14.2275 N.ar    1  UNL1       -0.3378
     38 H          61.7186   89.5895   14.9508 H       1  UNL1        0.1672
@<TRIPOS>BOND
     1    14    15    2
     2    15    16   am
     3    16    18    1
     4    18    19   ar
     5    19    20   ar
     6    20    21   ar
     7    21    24    1
     8    24    25    1
     9    25    26   ar
    10    26    27   ar
    11    27    28   ar
    12    28    29    1
    13    28    30   ar
    14    30    31   ar
    15    21    22   ar
    16    22    23   ar
    17     1    15    1
    18     1     2    1
    19     2     3    1
    20     3     8    1
    21     8     9   ar
    22     9    10   ar
    23    10    11   ar
    24    11    12   ar
    25    12    13   ar
    26     3     4    1
    27     4     5    1
    28     5     6   am
    29     6     7    2
    30     6    32    1
    31    32    33    1
    32    33    34   ar
    33    34    35   ar
    34    35    36   ar
    35    36    37   ar
    36    23    18   ar
    37     5     1    1
    38    37    33   ar
    39    31    25   ar
    40    13     8   ar
    41    16    17    1
    42    37    38    1
@<TRIPOS>MOLECULE
*****
 38 42 0 0 0
SMALL
GASTEIGER

@<TRIPOS>ATOM
      1 C          64.5857   91.2437   13.1721 C.3     1  UNL1        0.1524
      2 C          65.8729   92.0123   13.1247 C.3     1  UNL1        0.0353
      3 C          66.4829   91.9798   14.4948 C.3     1  UNL1        0.0443
      4 C          65.5726   91.1910   15.3888 C.3     1  UNL1        0.0982
      5 N          64.4001   90.7361   14.5713 N.am    1  UNL1       -0.2723
      6 C          63.2447   89.9174   15.0661 C.2     1  UNL1        0.2320
      7 O          62.1389   89.5362   14.1271 O.2     1  UNL1       -0.2744
      8 C          67.7761   92.6230   14.8997 C.ar    1  UNL1       -0.0208
      9 C          67.7767   93.7414   15.8993 C.ar    1  UNL1       -0.0042
     10 C          69.0699   94.3846   16.3042 C.ar    1  UNL1       -0.0003
     11 C          70.3624   93.9095   15.7095 C.ar    1  UNL1       -0.0000
     12 C          70.3617   92.7911   14.7099 C.ar    1  UNL1       -0.0003
     13 C          69.0685   92.1478   14.3050 C.ar    1  UNL1       -0.0042
     14 O          63.5150   92.0639   10.9514 O.2     1  UNL1       -0.2730
     15 C          63.6486   91.0217   12.0220 C.2     1  UNL1        0.2442
     16 N          62.8452   89.7575   11.9424 N.am    1  UNL1       -0.2826
     17 H          62.9329   89.0735   12.6451 H       1  UNL1        0.1549
     18 C          61.9081   89.5355   10.7923 C.ar    1  UNL1        0.0505
     19 C          62.1002   88.3565    9.8852 C.ar    1  UNL1        0.0178
     20 C          61.1632   88.1345    8.7352 C.ar    1  UNL1        0.0388
     21 C          60.0340   89.0916    8.4923 C.ar    1  UNL1        0.1454
     22 C          59.8418   90.2706    9.3994 C.ar    1  UNL1        0.0388
     23 C          60.7789   90.4926   10.5495 C.ar    1  UNL1        0.0178
     24 O          59.0969   88.8696    7.3422 O.3     1  UNL1       -0.4535
     25 C          59.0288   89.8696    6.2264 C.ar    1  UNL1        0.1454
     26 C          60.2873   90.3222    5.5470 C.ar    1  UNL1        0.0398
     27 C          60.2192   91.3223    4.4311 C.ar    1  UNL1        0.0328
     28 C          58.8928   91.8699    3.9946 C.ar    1  UNL1        0.1403
     29 F          58.8247   92.8699    2.8788 F       1  UNL1       -0.2042
     30 C          57.6343   91.4173    4.6740 C.ar    1  UNL1        0.0328
     31 C          57.7023   90.4173    5.7898 C.ar    1  UNL1        0.0398
     32 C          63.1952   89.4798   16.5000 C.3     1  UNL1        0.1303
     33 C          63.0496   88.0251   16.8357 C.ar    1  UNL1        0.0634
     34 C          62.5402   87.4658   18.1309 C.ar    1  UNL1        0.1136
     35 N          62.5637   85.9693   18.0308 N.ar    1  UNL1       -0.2229
     36 C          63.0875   85.6038   16.6736 C.ar    1  UNL1        0.1748
     37 N          63.3879   86.8743   15.9350 N.ar    1  UNL1       -0.3378
     38 H          63.7444   86.9411   15.0198 H       1  UNL1        0.1672
@<TRIPOS>BOND
     1    14    15    2
     2    15    16   am
     3    16    18    1
     4    18    19   ar
     5    19    20   ar
     6    20    21   ar
     7    21    24    1
     8    24    25    1
     9    25    26   ar
    10    26    27   ar
    11    27    28   ar
    12    28    29    1
    13    28    30   ar
    14    30    31   ar
    15    21    22   ar
    16    22    23   ar
    17     1    15    1
    18     1     2    1
    19     2     3    1
    20     3     8    1
    21     8     9   ar
    22     9    10   ar
    23    10    11   ar
    24    11    12   ar
    25    12    13   ar
    26     3     4    1
    27     4     5    1
    28     5     6   am
    29     6     7    2
    30     6    32    1
    31    32    33    1
    32    33    34   ar
    33    34    35   ar
    34    35    36   ar
    35    36    37   ar
    36    23    18   ar
    37     5     1    1
    38    37    33   ar
    39    31    25   ar
    40    13     8   ar
    41    16    17    1
    42    37    38    1
