@<TRIPOS>MOLECULE
*****
 58 62 0 0 0
SMALL
GASTEIGER

@<TRIPOS>ATOM
      1 C          61.8304   89.2657   11.0802 C.2     1  UNL1        0.2429
      2 O          61.1015   89.5240   12.3655 O.2     1  UNL1       -0.2732
      3 N          62.6339   88.0101   10.9129 N.am    1  UNL1       -0.3042
      4 H          63.1123   87.8405   10.0694 H       1  UNL1        0.1494
      5 C          62.7086   87.0130   12.0310 C.3     1  UNL1        0.0760
      6 C          63.5549   87.2993   13.2359 C.3     1  UNL1        0.0216
      7 C          64.2701   88.6124   13.3553 C.3     1  UNL1        0.0217
      8 C          64.2651   89.3532   14.6596 C.3     1  UNL1        0.0792
      9 N          64.1855   88.5960   15.9519 N.am    1  UNL1       -0.2720
     10 C          62.9021   88.5698   16.7280 C.2     1  UNL1        0.4019
     11 O          61.6984   89.3009   16.2117 O.2     1  UNL1       -0.2264
     12 H          64.9755   88.1162   16.2908 H       1  UNL1        0.1527
     13 O          62.8225   87.8126   18.0204 O.3     1  UNL1       -0.4291
     14 C          62.5260   86.3422   18.0110 C.3     1  UNL1        0.2447
     15 C          62.9593   85.4971   16.8500 C.ar    1  UNL1        0.0714
     16 C          64.3565   85.3813   16.3165 C.ar    1  UNL1        0.1053
     17 N          64.3322   84.4321   15.1553 N.ar    1  UNL1       -0.2350
     18 C          62.9200   83.9611   14.9711 C.ar    1  UNL1        0.1343
     19 S          62.0714   84.6193   16.0184 S.2     1  UNL1       -0.0652
     20 C          64.3399   90.8514   14.6715 C.3     1  UNL1        0.0460
     21 C          65.6666   91.5350   14.8209 C.ar    1  UNL1       -0.0205
     22 C          65.9412   92.3841   16.0265 C.ar    1  UNL1       -0.0042
     23 C          67.2680   93.0677   16.1760 C.ar    1  UNL1       -0.0003
     24 C          68.3202   92.9022   15.1198 C.ar    1  UNL1       -0.0000
     25 C          68.0456   92.0530   13.9141 C.ar    1  UNL1       -0.0003
     26 C          66.7187   91.3694   13.7647 C.ar    1  UNL1       -0.0042
     27 C          61.9371   85.7296   11.9441 C.3     1  UNL1        0.0459
     28 C          62.5978   84.4917   11.4140 C.ar    1  UNL1       -0.0205
     29 C          63.4377   84.5625   10.1732 C.ar    1  UNL1       -0.0042
     30 C          64.0984   83.3247    9.6430 C.ar    1  UNL1       -0.0003
     31 C          63.9192   82.0159   10.3537 C.ar    1  UNL1       -0.0000
     32 C          63.0793   81.9450   11.5944 C.ar    1  UNL1       -0.0003
     33 C          62.4186   83.1829   12.1246 C.ar    1  UNL1       -0.0042
     34 C          61.7557   90.2628    9.9621 C.3     1  UNL1        0.1796
     35 N          59.2707   88.6540    7.3189 N.am    1  UNL1       -0.2567
     36 C          58.9129   87.3023    6.7755 C.3     1  UNL1        0.1168
     37 C          60.3343   88.7826    8.3688 C.2     1  UNL1        0.3047
     38 O          61.0400   87.5597    8.8754 O.2     1  UNL1       -0.2526
     39 N          60.6921   90.1342    8.9122 N.am    1  UNL1       -0.2805
     40 H          60.2290   90.9368    8.5797 H       1  UNL1        0.1514
     41 C          58.5651   89.8768    6.8123 C.3     1  UNL1        0.1413
     42 C          60.7563   91.5701    4.0926 C.ar    1  UNL1        0.0875
     43 N          60.5747   90.5620    5.1884 N.ar    1  UNL1       -0.2453
     44 C          59.1745   90.6921    5.7106 C.ar    1  UNL1        0.0858
     45 C          58.4908   91.7806    4.9375 C.ar    1  UNL1        0.0530
     46 S          59.4684   92.3232    3.9375 S.2     1  UNL1       -0.0705
     47 C          62.0956   92.9413    2.3388 C.3     1  UNL1        0.0069
     48 C          62.0064   91.7869    3.2924 C.3     1  UNL1        0.0465
     49 C          63.1672   90.8494    3.4459 C.3     1  UNL1        0.0069
     50 C          62.7445   91.3886    9.8940 C.3     1  UNL1        0.1715
     51 O          64.0405   91.2950   10.6435 O.3     1  UNL1       -0.3467
     52 C          64.6362   92.5218   11.2678 C.3     1  UNL1        0.1687
     53 C          65.7752   93.2285   10.5944 C.ar    1  UNL1        0.0073
     54 C          65.7269   94.7153   10.4022 C.ar    1  UNL1       -0.0019
     55 C          66.8658   95.4219    9.7288 C.ar    1  UNL1       -0.0002
     56 C          68.0531   94.6416    9.2476 C.ar    1  UNL1       -0.0000
     57 C          68.1015   93.1548    9.4398 C.ar    1  UNL1       -0.0002
     58 C          66.9625   92.4482   10.1132 C.ar    1  UNL1       -0.0019
@<TRIPOS>BOND
     1    47    48    1
     2    48    49    1
     3    48    42    1
     4    42    43   ar
     5    43    44   ar
     6    44    41    1
     7    41    35    1
     8    35    36    1
     9    35    37   am
    10    37    38    2
    11    37    39   am
    12    39    34    1
    13    34    50    1
    14    50    51    1
    15    51    52    1
    16    52    53    1
    17    53    54   ar
    18    54    55   ar
    19    55    56   ar
    20    56    57   ar
    21    57    58   ar
    22    34     1    1
    23     1     2    2
    24     1     3   am
    25     3     5    1
    26     5     6    1
    27     6     7    1
    28     8     7    1
    29     8    20    1
    30    20    21    1
    31    21    22   ar
    32    22    23   ar
    33    23    24   ar
    34    24    25   ar
    35    25    26   ar
    36     8     9    1
    37     9    10   am
    38    10    11    2
    39    10    13    1
    40    13    14    1
    41    14    15    1
    42    15    16   ar
    43    16    17   ar
    44    17    18   ar
    45    18    19   ar
    46     5    27    1
    47    27    28    1
    48    28    29   ar
    49    29    30   ar
    50    30    31   ar
    51    31    32   ar
    52    32    33   ar
    53    44    45   ar
    54    45    46   ar
    55    46    42   ar
    56    58    53   ar
    57    26    21   ar
    58    19    15   ar
    59    33    28   ar
    60    39    40    1
    61     3     4    1
    62     9    12    1
@<TRIPOS>MOLECULE
*****
 58 62 0 0 0
SMALL
GASTEIGER

@<TRIPOS>ATOM
      1 C          61.5914   89.7811   10.6431 C.2     1  UNL1        0.2429
      2 O          60.6603   90.8307   11.1736 O.2     1  UNL1       -0.2732
      3 N          63.0730   90.0152   10.6598 N.am    1  UNL1       -0.3042
      4 H          63.6841   89.3263   10.3116 H       1  UNL1        0.1494
      5 C          63.6234   91.2987   11.2071 C.3     1  UNL1        0.0760
      6 C          63.7905   91.4722   12.6875 C.3     1  UNL1        0.0216
      7 C          63.6278   90.2956   13.6037 C.3     1  UNL1        0.0217
      8 C          64.2051   90.3371   14.9875 C.3     1  UNL1        0.0792
      9 N          64.2334   89.0937   15.8260 N.am    1  UNL1       -0.2720
     10 C          62.9752   88.5975   16.4745 C.2     1  UNL1        0.4019
     11 O          61.6885   89.3448   16.2846 O.2     1  UNL1       -0.2264
     12 H          65.0779   88.6032   15.9506 H       1  UNL1        0.1527
     13 O          63.0036   87.3540   17.3129 O.3     1  UNL1       -0.4291
     14 C          62.4343   86.0743   16.7760 C.3     1  UNL1        0.2447
     15 C          63.2776   85.1814   15.9148 C.ar    1  UNL1        0.0714
     16 C          63.1169   83.6981   15.7596 C.ar    1  UNL1        0.1053
     17 N          64.1697   83.2150   14.8065 N.ar    1  UNL1       -0.2350
     18 C          64.9811   84.3997   14.3727 C.ar    1  UNL1        0.1343
     19 S          64.4298   85.6150   15.0577 S.2     1  UNL1       -0.0652
     20 C          64.7540   91.6222   15.5330 C.3     1  UNL1        0.0460
     21 C          66.1895   91.9859   15.2941 C.ar    1  UNL1       -0.0205
     22 C          66.9630   92.7193   16.3494 C.ar    1  UNL1       -0.0042
     23 C          68.3985   93.0830   16.1105 C.ar    1  UNL1       -0.0003
     24 C          69.0605   92.7133   14.8162 C.ar    1  UNL1       -0.0000
     25 C          68.2869   91.9799   13.7609 C.ar    1  UNL1       -0.0003
     26 C          66.8514   91.6162   13.9998 C.ar    1  UNL1       -0.0042
     27 C          64.0067   92.4087   10.2738 C.3     1  UNL1        0.0459
     28 C          65.4359   92.8555   10.1867 C.ar    1  UNL1       -0.0205
     29 C          65.7637   94.3189   10.1543 C.ar    1  UNL1       -0.0042
     30 C          67.1929   94.7657   10.0672 C.ar    1  UNL1       -0.0003
     31 C          68.2945   93.7490   10.0125 C.ar    1  UNL1       -0.0000
     32 C          67.9668   92.2857   10.0449 C.ar    1  UNL1       -0.0003
     33 C          66.5375   91.8388   10.1320 C.ar    1  UNL1       -0.0042
     34 C          61.0410   88.4976   10.0958 C.3     1  UNL1        0.1796
     35 N          62.8025   85.0771    9.1227 N.am    1  UNL1       -0.2567
     36 C          62.9702   84.1883    7.9260 C.3     1  UNL1        0.1168
     37 C          62.0056   86.3430    9.0110 C.2     1  UNL1        0.3047
     38 O          61.3764   86.7200    7.7025 O.2     1  UNL1       -0.2526
     39 N          61.8379   87.2317   10.2076 N.am    1  UNL1       -0.2805
     40 H          62.2508   86.9842   11.0663 H       1  UNL1        0.1514
     41 C          63.4317   84.7000   10.4311 C.3     1  UNL1        0.1413
     42 C          62.6158   81.4135   12.3281 C.ar    1  UNL1        0.0875
     43 N          62.4877   82.8992   12.1664 N.ar    1  UNL1       -0.2453
     44 C          63.2824   83.3045   10.9605 C.ar    1  UNL1        0.0858
     45 C          63.9017   82.0692   10.3770 C.ar    1  UNL1        0.0530
     46 S          63.4897   80.9005   11.2222 S.2     1  UNL1       -0.0705
     47 C          60.7971   81.1157   14.1594 C.3     1  UNL1        0.0069
     48 C          61.9814   80.5860   13.4065 C.3     1  UNL1        0.0465
     49 C          62.5313   79.2289   13.7320 C.3     1  UNL1        0.0069
     50 C          59.6936   88.4800    9.4368 C.3     1  UNL1        0.1715
     51 O          59.3475   89.5168    8.4095 O.3     1  UNL1       -0.3467
     52 C          59.3647   89.1634    6.9519 C.3     1  UNL1        0.1687
     53 C          59.2684   90.2448    5.9168 C.ar    1  UNL1        0.0073
     54 C          57.9290   90.8053    5.5401 C.ar    1  UNL1       -0.0019
     55 C          57.8327   91.8866    4.5050 C.ar    1  UNL1       -0.0002
     56 C          59.0758   92.4075    3.8466 C.ar    1  UNL1       -0.0000
     57 C          60.4152   91.8470    4.2234 C.ar    1  UNL1       -0.0002
     58 C          60.5114   90.7657    5.2584 C.ar    1  UNL1       -0.0019
@<TRIPOS>BOND
     1    47    48    1
     2    48    49    1
     3    48    42    1
     4    42    43   ar
     5    43    44   ar
     6    44    41    1
     7    41    35    1
     8    35    36    1
     9    35    37   am
    10    37    38    2
    11    37    39   am
    12    39    34    1
    13    34    50    1
    14    50    51    1
    15    51    52    1
    16    52    53    1
    17    53    54   ar
    18    54    55   ar
    19    55    56   ar
    20    56    57   ar
    21    57    58   ar
    22    34     1    1
    23     1     2    2
    24     1     3   am
    25     3     5    1
    26     5     6    1
    27     6     7    1
    28     8     7    1
    29     8    20    1
    30    20    21    1
    31    21    22   ar
    32    22    23   ar
    33    23    24   ar
    34    24    25   ar
    35    25    26   ar
    36     8     9    1
    37     9    10   am
    38    10    11    2
    39    10    13    1
    40    13    14    1
    41    14    15    1
    42    15    16   ar
    43    16    17   ar
    44    17    18   ar
    45    18    19   ar
    46     5    27    1
    47    27    28    1
    48    28    29   ar
    49    29    30   ar
    50    30    31   ar
    51    31    32   ar
    52    32    33   ar
    53    44    45   ar
    54    45    46   ar
    55    46    42   ar
    56    58    53   ar
    57    26    21   ar
    58    19    15   ar
    59    33    28   ar
    60    39    40    1
    61     3     4    1
    62     9    12    1
@<TRIPOS>MOLECULE
*****
 58 62 0 0 0
SMALL
GASTEIGER

@<TRIPOS>ATOM
      1 C          60.3445   89.2419    8.9238 C.2     1  UNL1        0.2429
      2 O          59.9696   90.3950    9.8068 O.2     1  UNL1       -0.2732
      3 N          61.3042   88.2001    9.4177 N.am    1  UNL1       -0.3042
      4 H          61.5502   87.4432    8.8381 H       1  UNL1        0.1494
      5 C          61.8888   88.3115   10.7945 C.3     1  UNL1        0.0760
      6 C          62.7964   89.4566   11.1334 C.3     1  UNL1        0.0216
      7 C          62.5974   90.2190   12.4099 C.3     1  UNL1        0.0217
      8 C          63.7771   90.8145   13.1196 C.3     1  UNL1        0.0792
      9 N          64.8139   91.5729   12.3450 N.am    1  UNL1       -0.2720
     10 C          65.7536   92.4995   13.0579 C.2     1  UNL1        0.4019
     11 O          65.6566   92.6679   14.5453 O.2     1  UNL1       -0.2264
     12 H          64.8776   91.4624   11.3688 H       1  UNL1        0.1527
     13 O          66.7904   93.2580   12.2834 O.3     1  UNL1       -0.4291
     14 C          66.7714   93.2357   10.7836 C.3     1  UNL1        0.2447
     15 C          66.8809   94.5180   10.0130 C.ar    1  UNL1        0.0714
     16 C          67.5099   94.6835    8.6614 C.ar    1  UNL1        0.1053
     17 N          67.3983   96.1277    8.2718 N.ar    1  UNL1       -0.2350
     18 C          66.7004   96.8549    9.3828 C.ar    1  UNL1        0.1343
     19 S          66.3806   95.8600   10.4589 S.2     1  UNL1       -0.0652
     20 C          63.9201   90.6515   14.6039 C.3     1  UNL1        0.0460
     21 C          63.8115   89.2894   15.2227 C.ar    1  UNL1       -0.0205
     22 C          63.0874   89.1126   16.5244 C.ar    1  UNL1       -0.0042
     23 C          62.9789   87.7505   17.1432 C.ar    1  UNL1       -0.0003
     24 C          63.5944   86.5652   16.4604 C.ar    1  UNL1       -0.0000
     25 C          64.3186   86.7421   15.1587 C.ar    1  UNL1       -0.0003
     26 C          64.4271   88.1042   14.5398 C.ar    1  UNL1       -0.0042
     27 C          61.5659   87.2778   11.8324 C.3     1  UNL1        0.0459
     28 C          62.2467   85.9417   11.7974 C.ar    1  UNL1       -0.0205
     29 C          62.7910   85.4109   10.5042 C.ar    1  UNL1       -0.0042
     30 C          63.4718   84.0748   10.4692 C.ar    1  UNL1       -0.0003
     31 C          63.6083   83.2694   11.7273 C.ar    1  UNL1       -0.0000
     32 C          63.0640   83.8001   13.0203 C.ar    1  UNL1       -0.0003
     33 C          62.3832   85.1363   13.0554 C.ar    1  UNL1       -0.0042
     34 C          59.7598   89.1305    7.5469 C.3     1  UNL1        0.1796
     35 N          60.0410   91.6032    4.4556 N.am    1  UNL1       -0.2567
     36 C          59.1559   92.4824    3.6227 C.3     1  UNL1        0.1168
     37 C          59.4579   90.8064    5.5848 C.2     1  UNL1        0.3047
     38 O          57.9897   90.8888    5.8811 O.2     1  UNL1       -0.2526
     39 N          60.3429   89.9273    6.4177 N.am    1  UNL1       -0.2805
     40 H          61.3065   89.8732    6.2233 H       1  UNL1        0.1514
     41 C          61.5091   91.5209    4.1593 C.3     1  UNL1        0.1413
     42 C          63.5060   93.7509    1.6885 C.ar    1  UNL1        0.0875
     43 N          63.2856   93.1897    3.0620 N.ar    1  UNL1       -0.2453
     44 C          62.0863   92.2904    3.0084 C.ar    1  UNL1        0.0858
     45 C          61.5655   92.2957    1.6017 C.ar    1  UNL1        0.0530
     46 S          62.4429   93.1983    0.7859 S.2     1  UNL1       -0.0705
     47 C          65.1193   94.6898   -0.1185 C.3     1  UNL1        0.0069
     48 C          64.5978   94.6982    1.2878 C.3     1  UNL1        0.0465
     49 C          65.1681   95.6539    2.2936 C.3     1  UNL1        0.0069
     50 C          58.5920   88.2222    7.2993 C.3     1  UNL1        0.1715
     51 O          58.6111   86.8165    7.8224 O.3     1  UNL1       -0.3467
     52 C          59.8833   86.2348    8.3636 C.3     1  UNL1        0.1687
     53 C          60.8268   85.5125    7.4481 C.ar    1  UNL1        0.0073
     54 C          60.2971   84.7806    6.2507 C.ar    1  UNL1       -0.0019
     55 C          61.2406   84.0584    5.3352 C.ar    1  UNL1       -0.0002
     56 C          62.7139   84.0680    5.6172 C.ar    1  UNL1       -0.0000
     57 C          63.2436   84.7999    6.8145 C.ar    1  UNL1       -0.0002
     58 C          62.3001   85.5221    7.7300 C.ar    1  UNL1       -0.0019
@<TRIPOS>BOND
     1    47    48    1
     2    48    49    1
     3    48    42    1
     4    42    43   ar
     5    43    44   ar
     6    44    41    1
     7    41    35    1
     8    35    36    1
     9    35    37   am
    10    37    38    2
    11    37    39   am
    12    39    34    1
    13    34    50    1
    14    50    51    1
    15    51    52    1
    16    52    53    1
    17    53    54   ar
    18    54    55   ar
    19    55    56   ar
    20    56    57   ar
    21    57    58   ar
    22    34     1    1
    23     1     2    2
    24     1     3   am
    25     3     5    1
    26     5     6    1
    27     6     7    1
    28     8     7    1
    29     8    20    1
    30    20    21    1
    31    21    22   ar
    32    22    23   ar
    33    23    24   ar
    34    24    25   ar
    35    25    26   ar
    36     8     9    1
    37     9    10   am
    38    10    11    2
    39    10    13    1
    40    13    14    1
    41    14    15    1
    42    15    16   ar
    43    16    17   ar
    44    17    18   ar
    45    18    19   ar
    46     5    27    1
    47    27    28    1
    48    28    29   ar
    49    29    30   ar
    50    30    31   ar
    51    31    32   ar
    52    32    33   ar
    53    44    45   ar
    54    45    46   ar
    55    46    42   ar
    56    58    53   ar
    57    26    21   ar
    58    19    15   ar
    59    33    28   ar
    60    39    40    1
    61     3     4    1
    62     9    12    1
@<TRIPOS>MOLECULE
*****
 58 62 0 0 0
SMALL
GASTEIGER

@<TRIPOS>ATOM
      1 C          61.9944   89.4619   11.3776 C.2     1  UNL1        0.2429
      2 O          60.7832   89.2923   12.2461 O.2     1  UNL1       -0.2732
      3 N          63.2050   88.6052   11.6033 N.am    1  UNL1       -0.3042
      4 H          64.0000   88.7165   11.0334 H       1  UNL1        0.1494
      5 C          63.2042   87.5791   12.6974 C.3     1  UNL1        0.0760
      6 C          62.2551   86.4192   12.6371 C.3     1  UNL1        0.0216
      7 C          61.8354   85.8618   11.3092 C.3     1  UNL1        0.0217
      8 C          62.5950   84.7203   10.7010 C.3     1  UNL1        0.0792
      9 N          62.6051   83.3813   11.3771 N.am    1  UNL1       -0.2720
     10 C          63.8292   82.5170   11.3111 C.2     1  UNL1        0.4019
     11 O          65.0434   82.9917   10.5691 O.2     1  UNL1       -0.2264
     12 H          61.8082   83.0698   11.8641 H       1  UNL1        0.1527
     13 O          63.8393   81.1780   11.9872 O.3     1  UNL1       -0.4291
     14 C          63.7037   81.0898   13.4785 C.3     1  UNL1        0.2447
     15 C          63.4934   82.3353   14.2875 C.ar    1  UNL1        0.0714
     16 C          64.5552   83.3163   14.6879 C.ar    1  UNL1        0.1053
     17 N          63.9025   84.4059   15.4859 N.ar    1  UNL1       -0.2350
     18 C          62.4373   84.0983   15.5787 C.ar    1  UNL1        0.1343
     19 S          62.1844   82.8186   14.8380 S.2     1  UNL1       -0.0652
     20 C          63.3446   84.9177    9.4168 C.3     1  UNL1        0.0460
     21 C          62.6314   84.7839    8.1040 C.ar    1  UNL1       -0.0205
     22 C          63.4008   84.4340    6.8647 C.ar    1  UNL1       -0.0042
     23 C          62.6877   84.3002    5.5520 C.ar    1  UNL1       -0.0003
     24 C          61.2051   84.5163    5.4783 C.ar    1  UNL1       -0.0000
     25 C          60.4357   84.8661    6.7175 C.ar    1  UNL1       -0.0003
     26 C          61.1489   84.9999    8.0304 C.ar    1  UNL1       -0.0042
     27 C          64.1526   87.7130   13.8519 C.3     1  UNL1        0.0459
     28 C          64.1538   88.9634   14.6803 C.ar    1  UNL1       -0.0205
     29 C          63.3289   89.0353   15.9312 C.ar    1  UNL1       -0.0042
     30 C          63.3302   90.2857   16.7596 C.ar    1  UNL1       -0.0003
     31 C          64.1564   91.4643   16.3373 C.ar    1  UNL1       -0.0000
     32 C          64.9812   91.3925   15.0866 C.ar    1  UNL1       -0.0003
     33 C          64.9800   90.1420   14.2581 C.ar    1  UNL1       -0.0042
     34 C          61.9952   90.4880   10.2835 C.3     1  UNL1        0.1796
     35 N          59.5258   89.0423    7.5336 N.am    1  UNL1       -0.2567
     36 C          59.1222   87.7182    6.9557 C.3     1  UNL1        0.1168
     37 C          60.5587   89.1031    8.6196 C.2     1  UNL1        0.3047
     38 O          61.1880   87.8398    9.1277 O.2     1  UNL1       -0.2526
     39 N          60.9623   90.4272    9.1975 N.am    1  UNL1       -0.2805
     40 H          60.5492   91.2563    8.8641 H       1  UNL1        0.1514
     41 C          58.8965   90.3056    7.0256 C.3     1  UNL1        0.1413
     42 C          60.9185   91.6334    3.9901 C.ar    1  UNL1        0.0875
     43 N          60.8093   90.7821    5.2203 N.ar    1  UNL1       -0.2453
     44 C          59.4356   90.9690    5.7930 C.ar    1  UNL1        0.0858
     45 C          58.6958   91.9359    4.9168 C.ar    1  UNL1        0.0530
     46 S          59.6122   92.3465    3.8026 S.2     1  UNL1       -0.0705
     47 C          63.3407   90.9203    3.3786 C.3     1  UNL1        0.0069
     48 C          62.1225   91.7510    3.1033 C.3     1  UNL1        0.0465
     49 C          62.1083   92.6993    1.9411 C.3     1  UNL1        0.0069
     50 C          63.0289   91.5749   10.2755 C.3     1  UNL1        0.1715
     51 O          64.3169   91.3905   11.0219 O.3     1  UNL1       -0.3467
     52 C          65.0524   92.5843   11.5548 C.3     1  UNL1        0.1687
     53 C          66.0382   93.3074   10.6856 C.ar    1  UNL1        0.0073
     54 C          67.1943   92.5645   10.0845 C.ar    1  UNL1       -0.0019
     55 C          68.1801   93.2876    9.2154 C.ar    1  UNL1       -0.0002
     56 C          68.0096   94.7536    8.9474 C.ar    1  UNL1       -0.0000
     57 C          66.8535   95.4965    9.5485 C.ar    1  UNL1       -0.0002
     58 C          65.8678   94.7734   10.4176 C.ar    1  UNL1       -0.0019
@<TRIPOS>BOND
     1    47    48    1
     2    48    49    1
     3    48    42    1
     4    42    43   ar
     5    43    44   ar
     6    44    41    1
     7    41    35    1
     8    35    36    1
     9    35    37   am
    10    37    38    2
    11    37    39   am
    12    39    34    1
    13    34    50    1
    14    50    51    1
    15    51    52    1
    16    52    53    1
    17    53    54   ar
    18    54    55   ar
    19    55    56   ar
    20    56    57   ar
    21    57    58   ar
    22    34     1    1
    23     1     2    2
    24     1     3   am
    25     3     5    1
    26     5     6    1
    27     6     7    1
    28     8     7    1
    29     8    20    1
    30    20    21    1
    31    21    22   ar
    32    22    23   ar
    33    23    24   ar
    34    24    25   ar
    35    25    26   ar
    36     8     9    1
    37     9    10   am
    38    10    11    2
    39    10    13    1
    40    13    14    1
    41    14    15    1
    42    15    16   ar
    43    16    17   ar
    44    17    18   ar
    45    18    19   ar
    46     5    27    1
    47    27    28    1
    48    28    29   ar
    49    29    30   ar
    50    30    31   ar
    51    31    32   ar
    52    32    33   ar
    53    44    45   ar
    54    45    46   ar
    55    46    42   ar
    56    58    53   ar
    57    26    21   ar
    58    19    15   ar
    59    33    28   ar
    60    39    40    1
    61     3     4    1
    62     9    12    1
@<TRIPOS>MOLECULE
*****
 58 62 0 0 0
SMALL
GASTEIGER

@<TRIPOS>ATOM
      1 C          60.4065   89.6192    8.7012 C.2     1  UNL1        0.2429
      2 O          59.6244   90.2759    9.7999 O.2     1  UNL1       -0.2732
      3 N          61.8046   89.1405    8.9587 N.am    1  UNL1       -0.3042
      4 H          62.3179   88.7094    8.2376 H       1  UNL1        0.1494
      5 C          62.4206   89.3185   10.3147 C.3     1  UNL1        0.0760
      6 C          63.6559   90.1545   10.4733 C.3     1  UNL1        0.0216
      7 C          63.5864   91.4651   11.1997 C.3     1  UNL1        0.0217
      8 C          64.8301   92.0642   11.7865 C.3     1  UNL1        0.0792
      9 N          64.8724   92.4300   13.2406 N.am    1  UNL1       -0.2720
     10 C          64.8536   91.3539   14.2855 C.2     1  UNL1        0.4019
     11 O          64.7925   89.9121   13.8762 O.2     1  UNL1       -0.2264
     12 H          64.9125   93.3763   13.5092 H       1  UNL1        0.1527
     13 O          64.8959   91.7197   15.7396 O.3     1  UNL1       -0.4291
     14 C          65.8743   92.7474   16.2263 C.3     1  UNL1        0.2447
     15 C          67.2734   92.7661   15.6857 C.ar    1  UNL1        0.0714
     16 C          67.8278   91.8423   14.6420 C.ar    1  UNL1        0.1053
     17 N          69.2608   92.2172   14.4051 N.ar    1  UNL1       -0.2350
     18 C          69.5920   93.3727   15.3024 C.ar    1  UNL1        0.1343
     19 S          68.3637   93.7120   16.0939 S.2     1  UNL1       -0.0652
     20 C          66.0315   92.2976   10.9191 C.3     1  UNL1        0.0460
     21 C          66.3814   93.6888   10.4811 C.ar    1  UNL1       -0.0205
     22 C          67.2997   93.8990    9.3138 C.ar    1  UNL1       -0.0042
     23 C          67.6497   95.2902    8.8758 C.ar    1  UNL1       -0.0003
     24 C          67.0814   96.4714    9.6051 C.ar    1  UNL1       -0.0000
     25 C          66.1631   96.2613   10.7724 C.ar    1  UNL1       -0.0003
     26 C          65.8131   94.8699   11.2104 C.ar    1  UNL1       -0.0042
     27 C          61.8012   88.6607   11.5120 C.3     1  UNL1        0.0459
     28 C          62.3873   87.3925   12.0580 C.ar    1  UNL1       -0.0205
     29 C          61.8977   86.0648   11.5603 C.ar    1  UNL1       -0.0042
     30 C          62.4838   84.7966   12.1062 C.ar    1  UNL1       -0.0003
     31 C          63.5595   84.8560   13.1499 C.ar    1  UNL1       -0.0000
     32 C          64.0491   86.1836   13.6476 C.ar    1  UNL1       -0.0003
     33 C          63.4630   87.4519   13.1017 C.ar    1  UNL1       -0.0042
     34 C          59.7905   89.4411    7.3452 C.3     1  UNL1        0.1796
     35 N          60.1554   91.7498    4.1379 N.am    1  UNL1       -0.2567
     36 C          59.3221   92.6864    3.3143 C.3     1  UNL1        0.1168
     37 C          59.5563   91.0637    5.3297 C.2     1  UNL1        0.3047
     38 O          58.1239   91.3144    5.6979 O.2     1  UNL1       -0.2526
     39 N          60.3896   90.1271    6.1534 N.am    1  UNL1       -0.2805
     40 H          61.3297   89.9626    5.9117 H       1  UNL1        0.1514
     41 C          61.5877   91.4992    3.7697 C.3     1  UNL1        0.1413
     42 C          63.6815   93.9372    1.5931 C.ar    1  UNL1        0.0875
     43 N          63.3188   93.3531    2.9262 N.ar    1  UNL1       -0.2453
     44 C          62.2451   92.3288    2.7069 C.ar    1  UNL1        0.0858
     45 C          61.9442   92.2800    1.2382 C.ar    1  UNL1        0.0530
     46 S          62.8320   93.2740    0.5498 S.2     1  UNL1       -0.0705
     47 C          65.1884   95.8593    2.4789 C.3     1  UNL1        0.0069
     48 C          64.7127   94.9983    1.3465 C.3     1  UNL1        0.0465
     49 C          65.2682   95.1983   -0.0324 C.3     1  UNL1        0.0069
     50 C          58.5755   88.5770    7.1810 C.3     1  UNL1        0.1715
     51 O          58.4841   87.2661    7.9045 O.3     1  UNL1       -0.3467
     52 C          59.6603   86.7553    8.6826 C.3     1  UNL1        0.1687
     53 C          60.7248   85.9540    7.9933 C.ar    1  UNL1        0.0073
     54 C          60.4027   85.2054    6.7340 C.ar    1  UNL1       -0.0019
     55 C          61.4672   84.4042    6.0448 C.ar    1  UNL1       -0.0002
     56 C          62.8536   84.3517    6.6148 C.ar    1  UNL1       -0.0000
     57 C          63.1757   85.1004    7.8741 C.ar    1  UNL1       -0.0002
     58 C          62.1112   85.9015    8.5633 C.ar    1  UNL1       -0.0019
@<TRIPOS>BOND
     1    47    48    1
     2    48    49    1
     3    48    42    1
     4    42    43   ar
     5    43    44   ar
     6    44    41    1
     7    41    35    1
     8    35    36    1
     9    35    37   am
    10    37    38    2
    11    37    39   am
    12    39    34    1
    13    34    50    1
    14    50    51    1
    15    51    52    1
    16    52    53    1
    17    53    54   ar
    18    54    55   ar
    19    55    56   ar
    20    56    57   ar
    21    57    58   ar
    22    34     1    1
    23     1     2    2
    24     1     3   am
    25     3     5    1
    26     5     6    1
    27     6     7    1
    28     8     7    1
    29     8    20    1
    30    20    21    1
    31    21    22   ar
    32    22    23   ar
    33    23    24   ar
    34    24    25   ar
    35    25    26   ar
    36     8     9    1
    37     9    10   am
    38    10    11    2
    39    10    13    1
    40    13    14    1
    41    14    15    1
    42    15    16   ar
    43    16    17   ar
    44    17    18   ar
    45    18    19   ar
    46     5    27    1
    47    27    28    1
    48    28    29   ar
    49    29    30   ar
    50    30    31   ar
    51    31    32   ar
    52    32    33   ar
    53    44    45   ar
    54    45    46   ar
    55    46    42   ar
    56    58    53   ar
    57    26    21   ar
    58    19    15   ar
    59    33    28   ar
    60    39    40    1
    61     3     4    1
    62     9    12    1
@<TRIPOS>MOLECULE
*****
 58 62 0 0 0
SMALL
GASTEIGER

@<TRIPOS>ATOM
      1 C          60.4227   89.7968    8.7988 C.2     1  UNL1        0.2429
      2 O          59.5600   90.4015    9.8665 O.2     1  UNL1       -0.2732
      3 N          61.8676   89.5058    9.0776 N.am    1  UNL1       -0.3042
      4 H          62.4339   89.1089    8.3768 H       1  UNL1        0.1494
      5 C          62.4497   89.8194   10.4240 C.3     1  UNL1        0.0760
      6 C          63.5978   90.7777   10.5399 C.3     1  UNL1        0.0216
      7 C          63.8410   91.5042   11.8296 C.3     1  UNL1        0.0217
      8 C          64.9867   92.4655   11.9443 C.3     1  UNL1        0.0792
      9 N          65.9022   92.4031   13.1309 N.am    1  UNL1       -0.2720
     10 C          66.5090   93.6614   13.6770 C.2     1  UNL1        0.4019
     11 O          66.2003   94.9823   13.0366 O.2     1  UNL1       -0.2264
     12 H          66.1048   91.5362   13.5512 H       1  UNL1        0.1527
     13 O          67.4245   93.5989   14.8636 O.3     1  UNL1       -0.4291
     14 C          67.0395   92.7890   16.0661 C.3     1  UNL1        0.2447
     15 C          65.6808   92.1582   16.1417 C.ar    1  UNL1        0.0714
     16 C          64.5285   92.6430   16.9707 C.ar    1  UNL1        0.1053
     17 N          63.3713   91.7161   16.7430 N.ar    1  UNL1       -0.2350
     18 C          63.8083   90.6585   15.7733 C.ar    1  UNL1        0.1343
     19 S          65.2357   90.9317   15.4016 S.2     1  UNL1       -0.0652
     20 C          65.2169   93.4893   10.8724 C.3     1  UNL1        0.0460
     21 C          66.4401   93.4082   10.0080 C.ar    1  UNL1       -0.0205
     22 C          67.2953   92.1761   10.0325 C.ar    1  UNL1       -0.0042
     23 C          68.5185   92.0949    9.1681 C.ar    1  UNL1       -0.0003
     24 C          68.8865   93.2458    8.2792 C.ar    1  UNL1       -0.0000
     25 C          68.0312   94.4779    8.2547 C.ar    1  UNL1       -0.0003
     26 C          66.8080   94.5590    9.1192 C.ar    1  UNL1       -0.0042
     27 C          61.8836   89.1747   11.6544 C.3     1  UNL1        0.0459
     28 C          62.5445   87.9604   12.2365 C.ar    1  UNL1       -0.0205
     29 C          62.1982   86.5964   11.7171 C.ar    1  UNL1       -0.0042
     30 C          62.8591   85.3822   12.2992 C.ar    1  UNL1       -0.0003
     31 C          63.8662   85.5319   13.4007 C.ar    1  UNL1       -0.0000
     32 C          64.2124   86.8958   13.9202 C.ar    1  UNL1       -0.0003
     33 C          63.5516   88.1101   13.3380 C.ar    1  UNL1       -0.0042
     34 C          59.8407   89.4833    7.4524 C.3     1  UNL1        0.1796
     35 N          60.0942   91.6582    4.1425 N.am    1  UNL1       -0.2567
     36 C          59.2231   92.5347    3.2922 C.3     1  UNL1        0.1168
     37 C          59.5319   91.0090    5.3723 C.2     1  UNL1        0.3047
     38 O          58.0986   91.2364    5.7519 O.2     1  UNL1       -0.2526
     39 N          60.4029   90.1325    6.2226 N.am    1  UNL1       -0.2805
     40 H          61.3436   89.9832    5.9735 H       1  UNL1        0.1514
     41 C          61.5274   91.4308    3.7630 C.3     1  UNL1        0.1413
     42 C          63.6508   93.9120    1.6651 C.ar    1  UNL1        0.0875
     43 N          63.3238   93.2434    2.9675 N.ar    1  UNL1       -0.2453
     44 C          62.1779   92.3046    2.7317 C.ar    1  UNL1        0.0858
     45 C          61.7967   92.3929    1.2837 C.ar    1  UNL1        0.0530
     46 S          62.7070   93.3864    0.6245 S.2     1  UNL1       -0.0705
     47 C          65.1687   95.8170    2.5688 C.3     1  UNL1        0.0069
     48 C          64.7317   94.9278    1.4426 C.3     1  UNL1        0.0465
     49 C          65.3758   95.0545    0.0938 C.3     1  UNL1        0.0069
     50 C          58.6964   88.5205    7.3358 C.3     1  UNL1        0.1715
     51 O          58.6033   87.3496    8.2689 O.3     1  UNL1       -0.3467
     52 C          59.8339   86.8415    8.9597 C.3     1  UNL1        0.1687
     53 C          60.8421   86.0332    8.1978 C.ar    1  UNL1        0.0073
     54 C          62.2575   85.9462    8.6865 C.ar    1  UNL1       -0.0019
     55 C          63.2656   85.1380    7.9246 C.ar    1  UNL1       -0.0002
     56 C          62.8582   84.4168    6.6740 C.ar    1  UNL1       -0.0000
     57 C          61.4428   84.5039    6.1853 C.ar    1  UNL1       -0.0002
     58 C          60.4347   85.3121    6.9472 C.ar    1  UNL1       -0.0019
@<TRIPOS>BOND
     1    47    48    1
     2    48    49    1
     3    48    42    1
     4    42    43   ar
     5    43    44   ar
     6    44    41    1
     7    41    35    1
     8    35    36    1
     9    35    37   am
    10    37    38    2
    11    37    39   am
    12    39    34    1
    13    34    50    1
    14    50    51    1
    15    51    52    1
    16    52    53    1
    17    53    54   ar
    18    54    55   ar
    19    55    56   ar
    20    56    57   ar
    21    57    58   ar
    22    34     1    1
    23     1     2    2
    24     1     3   am
    25     3     5    1
    26     5     6    1
    27     6     7    1
    28     8     7    1
    29     8    20    1
    30    20    21    1
    31    21    22   ar
    32    22    23   ar
    33    23    24   ar
    34    24    25   ar
    35    25    26   ar
    36     8     9    1
    37     9    10   am
    38    10    11    2
    39    10    13    1
    40    13    14    1
    41    14    15    1
    42    15    16   ar
    43    16    17   ar
    44    17    18   ar
    45    18    19   ar
    46     5    27    1
    47    27    28    1
    48    28    29   ar
    49    29    30   ar
    50    30    31   ar
    51    31    32   ar
    52    32    33   ar
    53    44    45   ar
    54    45    46   ar
    55    46    42   ar
    56    58    53   ar
    57    26    21   ar
    58    19    15   ar
    59    33    28   ar
    60    39    40    1
    61     3     4    1
    62     9    12    1
@<TRIPOS>MOLECULE
*****
 58 62 0 0 0
SMALL
GASTEIGER

@<TRIPOS>ATOM
      1 C          62.1589   89.5145   11.4261 C.2     1  UNL1        0.2429
      2 O          61.0763   89.4568   12.4628 O.2     1  UNL1       -0.2732
      3 N          63.3692   88.6380   11.5561 N.am    1  UNL1       -0.3042
      4 H          64.0798   88.6758   10.8757 H       1  UNL1        0.1494
      5 C          63.4970   87.7039   12.7227 C.3     1  UNL1        0.0760
      6 C          62.8800   86.3381   12.6610 C.3     1  UNL1        0.0216
      7 C          62.0471   85.9441   11.4772 C.3     1  UNL1        0.0217
      8 C          62.5528   84.9104   10.5151 C.3     1  UNL1        0.0792
      9 N          62.3482   83.4528   10.8044 N.am    1  UNL1       -0.2720
     10 C          63.4766   82.4840   10.6098 C.2     1  UNL1        0.4019
     11 O          64.8097   82.9726   10.1259 O.2     1  UNL1       -0.2264
     12 H          61.4732   83.1321   11.1220 H       1  UNL1        0.1527
     13 O          63.2720   81.0264   10.8990 O.3     1  UNL1       -0.4291
     14 C          62.7516   80.5933   12.2376 C.3     1  UNL1        0.2447
     15 C          62.9079   81.4908   13.4293 C.ar    1  UNL1        0.0714
     16 C          64.2065   81.9617   14.0141 C.ar    1  UNL1        0.1053
     17 N          63.8942   82.8370   15.1916 N.ar    1  UNL1       -0.2350
     18 C          62.4027   82.9071   15.3344 C.ar    1  UNL1        0.1343
     19 S          61.7931   82.0751   14.2453 S.2     1  UNL1       -0.0652
     20 C          63.2631   85.3342    9.2637 C.3     1  UNL1        0.0460
     21 C          62.6929   84.9820    7.9218 C.ar    1  UNL1       -0.0205
     22 C          63.6071   84.7557    6.7543 C.ar    1  UNL1       -0.0042
     23 C          63.0369   84.4035    5.4124 C.ar    1  UNL1       -0.0003
     24 C          61.5524   84.2775    5.2379 C.ar    1  UNL1       -0.0000
     25 C          60.6381   84.5037    6.4054 C.ar    1  UNL1       -0.0003
     26 C          61.2084   84.8560    7.7474 C.ar    1  UNL1       -0.0042
     27 C          64.2419   88.1355   13.9511 C.3     1  UNL1        0.0459
     28 C          63.7786   87.6871   15.3054 C.ar    1  UNL1       -0.0205
     29 C          63.8403   86.2350   15.6764 C.ar    1  UNL1       -0.0042
     30 C          63.3770   85.7866   17.0307 C.ar    1  UNL1       -0.0003
     31 C          62.8521   86.7902   18.0142 C.ar    1  UNL1       -0.0000
     32 C          62.7904   88.2423   17.6433 C.ar    1  UNL1       -0.0003
     33 C          63.2537   88.6908   16.2889 C.ar    1  UNL1       -0.0042
     34 C          62.0311   90.4486   10.2595 C.3     1  UNL1        0.1796
     35 N          59.4709   88.7100    7.7750 N.am    1  UNL1       -0.2567
     36 C          59.1357   87.3382    7.2691 C.3     1  UNL1        0.1168
     37 C          60.5834   88.8934    8.7643 C.2     1  UNL1        0.3047
     38 O          61.3606   87.7050    9.2478 O.2     1  UNL1       -0.2526
     39 N          60.9186   90.2651    9.2702 N.am    1  UNL1       -0.2805
     40 H          60.4085   91.0451    8.9528 H       1  UNL1        0.1514
     41 C          58.6937   89.8983    7.2915 C.3     1  UNL1        0.1413
     42 C          60.5413   91.5177    4.2866 C.ar    1  UNL1        0.0875
     43 N          60.5323   90.6263    5.4930 N.ar    1  UNL1       -0.2453
     44 C          59.1504   90.6492    6.0759 C.ar    1  UNL1        0.0858
     45 C          58.3053   91.5547    5.2298 C.ar    1  UNL1        0.0530
     46 S          59.1650   92.0915    4.1239 S.2     1  UNL1       -0.0705
     47 C          61.6487   92.8756    2.3683 C.3     1  UNL1        0.0069
     48 C          61.7198   91.7879    3.3988 C.3     1  UNL1        0.0465
     49 C          62.9694   90.9705    3.5416 C.3     1  UNL1        0.0069
     50 C          63.0158   91.5661   10.0822 C.3     1  UNL1        0.1715
     51 O          64.4166   91.4204   10.5986 O.3     1  UNL1       -0.3467
     52 C          65.1326   92.6082   11.1700 C.3     1  UNL1        0.1687
     53 C          65.5695   92.6017   12.6050 C.ar    1  UNL1        0.0073
     54 C          65.1529   91.4810   13.5107 C.ar    1  UNL1       -0.0019
     55 C          65.5898   91.4745   14.9456 C.ar    1  UNL1       -0.0002
     56 C          66.4433   92.5888   15.4748 C.ar    1  UNL1       -0.0000
     57 C          66.8598   93.7095   14.5691 C.ar    1  UNL1       -0.0002
     58 C          66.4229   93.7160   13.1341 C.ar    1  UNL1       -0.0019
@<TRIPOS>BOND
     1    47    48    1
     2    48    49    1
     3    48    42    1
     4    42    43   ar
     5    43    44   ar
     6    44    41    1
     7    41    35    1
     8    35    36    1
     9    35    37   am
    10    37    38    2
    11    37    39   am
    12    39    34    1
    13    34    50    1
    14    50    51    1
    15    51    52    1
    16    52    53    1
    17    53    54   ar
    18    54    55   ar
    19    55    56   ar
    20    56    57   ar
    21    57    58   ar
    22    34     1    1
    23     1     2    2
    24     1     3   am
    25     3     5    1
    26     5     6    1
    27     6     7    1
    28     8     7    1
    29     8    20    1
    30    20    21    1
    31    21    22   ar
    32    22    23   ar
    33    23    24   ar
    34    24    25   ar
    35    25    26   ar
    36     8     9    1
    37     9    10   am
    38    10    11    2
    39    10    13    1
    40    13    14    1
    41    14    15    1
    42    15    16   ar
    43    16    17   ar
    44    17    18   ar
    45    18    19   ar
    46     5    27    1
    47    27    28    1
    48    28    29   ar
    49    29    30   ar
    50    30    31   ar
    51    31    32   ar
    52    32    33   ar
    53    44    45   ar
    54    45    46   ar
    55    46    42   ar
    56    58    53   ar
    57    26    21   ar
    58    19    15   ar
    59    33    28   ar
    60    39    40    1
    61     3     4    1
    62     9    12    1
@<TRIPOS>MOLECULE
*****
 58 62 0 0 0
SMALL
GASTEIGER

@<TRIPOS>ATOM
      1 C          61.2458   89.1558   10.4745 C.2     1  UNL1        0.2429
      2 O          60.1825   88.2659   11.0467 O.2     1  UNL1       -0.2732
      3 N          61.2208   89.5134    9.0179 N.am    1  UNL1       -0.3042
      4 H          61.9187   90.0975    8.6424 H       1  UNL1        0.1494
      5 C          60.1324   88.9812    8.1336 C.3     1  UNL1        0.0760
      6 C          59.4227   89.8989    7.1827 C.3     1  UNL1        0.0216
      7 C          59.7605   89.8719    5.7215 C.3     1  UNL1        0.0217
      8 C          60.1346   91.1409    5.0146 C.3     1  UNL1        0.0792
      9 N          61.5782   91.5226    4.8723 N.am    1  UNL1       -0.2720
     10 C          62.2663   91.3736    3.5479 C.2     1  UNL1        0.4019
     11 O          61.5109   90.8427    2.3657 O.2     1  UNL1       -0.2264
     12 H          62.0740   91.8711    5.6482 H       1  UNL1        0.1527
     13 O          63.7100   91.7553    3.4056 O.3     1  UNL1       -0.4291
     14 C          64.2659   92.0963    2.0548 C.3     1  UNL1        0.2447
     15 C          64.0682   93.4708    1.4875 C.ar    1  UNL1        0.0714
     16 C          64.4024   94.7633    2.1713 C.ar    1  UNL1        0.1053
     17 N          64.0423   95.8854    1.2433 N.ar    1  UNL1       -0.2350
     18 C          63.4855   95.2864   -0.0141 C.ar    1  UNL1        0.1343
     19 S          63.5014   93.7940    0.1368 S.2     1  UNL1       -0.0652
     20 C          59.0650   92.0282    4.4500 C.3     1  UNL1        0.0460
     21 C          59.3441   92.8572    3.2315 C.ar    1  UNL1       -0.0205
     22 C          60.0652   94.1659    3.3638 C.ar    1  UNL1       -0.0042
     23 C          60.3443   94.9949    2.1453 C.ar    1  UNL1       -0.0003
     24 C          59.9024   94.5153    0.7944 C.ar    1  UNL1       -0.0000
     25 C          59.1813   93.2067    0.6622 C.ar    1  UNL1       -0.0003
     26 C          58.9021   92.3776    1.8807 C.ar    1  UNL1       -0.0042
     27 C          59.7536   87.5313    8.2002 C.3     1  UNL1        0.0459
     28 C          60.7736   86.4749    7.8947 C.ar    1  UNL1       -0.0205
     29 C          60.5783   85.5606    6.7216 C.ar    1  UNL1       -0.0042
     30 C          61.5983   84.5042    6.4161 C.ar    1  UNL1       -0.0003
     31 C          62.8138   84.3620    7.2835 C.ar    1  UNL1       -0.0000
     32 C          63.0091   85.2762    8.4565 C.ar    1  UNL1       -0.0003
     33 C          61.9891   86.3327    8.7621 C.ar    1  UNL1       -0.0042
     34 C          62.3343   89.6880   11.3588 C.3     1  UNL1        0.1796
     35 N          63.7165   88.1334   14.7386 N.am    1  UNL1       -0.2567
     36 C          63.6836   88.4129   16.2120 C.3     1  UNL1        0.1168
     37 C          63.0089   89.0504   13.7854 C.2     1  UNL1        0.3047
     38 O          62.2686   90.2468   14.3056 O.2     1  UNL1       -0.2526
     39 N          63.0418   88.7710   12.3120 N.am    1  UNL1       -0.2805
     40 H          63.5277   87.9858   11.9706 H       1  UNL1        0.1514
     41 C          64.4568   86.9371   14.2185 C.3     1  UNL1        0.1413
     42 C          62.9869   83.3816   13.7050 C.ar    1  UNL1        0.0875
     43 N          63.6430   84.6184   13.1665 N.ar    1  UNL1       -0.2453
     44 C          63.8360   85.5744   14.3062 C.ar    1  UNL1        0.0858
     45 C          63.2992   84.9284   15.5490 C.ar    1  UNL1        0.0530
     46 S          62.7744   83.5732   15.1774 S.2     1  UNL1       -0.0705
     47 C          62.9263   82.1001   11.4458 C.3     1  UNL1        0.0069
     48 C          62.6095   82.1666   12.9104 C.3     1  UNL1        0.0465
     49 C          61.9154   81.0180   13.5805 C.3     1  UNL1        0.0069
     50 C          62.7152   91.1371   11.2899 C.3     1  UNL1        0.1715
     51 O          63.9620   91.5513   10.5661 O.3     1  UNL1       -0.3467
     52 C          65.0849   92.2019   11.3183 C.3     1  UNL1        0.1687
     53 C          66.0759   93.0617   10.5911 C.ar    1  UNL1        0.0073
     54 C          65.8236   94.5324   10.4391 C.ar    1  UNL1       -0.0019
     55 C          66.8146   95.3921    9.7119 C.ar    1  UNL1       -0.0002
     56 C          68.0578   94.7810    9.1367 C.ar    1  UNL1       -0.0000
     57 C          68.3101   93.3102    9.2886 C.ar    1  UNL1       -0.0002
     58 C          67.3191   92.4506   10.0158 C.ar    1  UNL1       -0.0019
@<TRIPOS>BOND
     1    47    48    1
     2    48    49    1
     3    48    42    1
     4    42    43   ar
     5    43    44   ar
     6    44    41    1
     7    41    35    1
     8    35    36    1
     9    35    37   am
    10    37    38    2
    11    37    39   am
    12    39    34    1
    13    34    50    1
    14    50    51    1
    15    51    52    1
    16    52    53    1
    17    53    54   ar
    18    54    55   ar
    19    55    56   ar
    20    56    57   ar
    21    57    58   ar
    22    34     1    1
    23     1     2    2
    24     1     3   am
    25     3     5    1
    26     5     6    1
    27     6     7    1
    28     8     7    1
    29     8    20    1
    30    20    21    1
    31    21    22   ar
    32    22    23   ar
    33    23    24   ar
    34    24    25   ar
    35    25    26   ar
    36     8     9    1
    37     9    10   am
    38    10    11    2
    39    10    13    1
    40    13    14    1
    41    14    15    1
    42    15    16   ar
    43    16    17   ar
    44    17    18   ar
    45    18    19   ar
    46     5    27    1
    47    27    28    1
    48    28    29   ar
    49    29    30   ar
    50    30    31   ar
    51    31    32   ar
    52    32    33   ar
    53    44    45   ar
    54    45    46   ar
    55    46    42   ar
    56    58    53   ar
    57    26    21   ar
    58    19    15   ar
    59    33    28   ar
    60    39    40    1
    61     3     4    1
    62     9    12    1
@<TRIPOS>MOLECULE
*****
 58 62 0 0 0
SMALL
GASTEIGER

@<TRIPOS>ATOM
      1 C          61.5552   89.1947   10.7435 C.2     1  UNL1        0.2429
      2 O          60.4541   88.3680   11.3385 O.2     1  UNL1       -0.2732
      3 N          61.5166   89.5603    9.2892 N.am    1  UNL1       -0.3042
      4 H          62.2393   90.1028    8.8986 H       1  UNL1        0.1494
      5 C          60.3768   89.0992    8.4300 C.3     1  UNL1        0.0760
      6 C          59.6919   90.0662    7.5103 C.3     1  UNL1        0.0216
      7 C          59.7821   89.8805    6.0246 C.3     1  UNL1        0.0217
      8 C          60.0940   91.0511    5.1400 C.3     1  UNL1        0.0792
      9 N          61.5128   91.5088    4.9741 N.am    1  UNL1       -0.2720
     10 C          62.2368   91.2549    3.6852 C.2     1  UNL1        0.4019
     11 O          61.5421   90.5432    2.5622 O.2     1  UNL1       -0.2264
     12 H          61.9687   91.9758    5.7111 H       1  UNL1        0.1527
     13 O          63.6556   91.7125    3.5193 O.3     1  UNL1       -0.4291
     14 C          64.1881   92.0241    2.1520 C.3     1  UNL1        0.2447
     15 C          63.9613   93.3790    1.5496 C.ar    1  UNL1        0.0714
     16 C          63.3941   93.6552    0.1888 C.ar    1  UNL1        0.1053
     17 N          63.3441   95.1425    0.0004 N.ar    1  UNL1       -0.2350
     18 C          63.8805   95.7856    1.2449 C.ar    1  UNL1        0.1343
     19 S          64.2620   94.6957    2.2024 S.2     1  UNL1       -0.0652
     20 C          58.9870   91.7640    4.4213 C.3     1  UNL1        0.0460
     21 C          59.3046   92.6874    3.2827 C.ar    1  UNL1       -0.0205
     22 C          58.9203   92.3112    1.8824 C.ar    1  UNL1       -0.0042
     23 C          59.2379   93.2346    0.7438 C.ar    1  UNL1       -0.0003
     24 C          59.9398   94.5342    1.0055 C.ar    1  UNL1       -0.0000
     25 C          60.3241   94.9104    2.4057 C.ar    1  UNL1       -0.0003
     26 C          60.0065   93.9869    3.5444 C.ar    1  UNL1       -0.0042
     27 C          59.9219   87.6711    8.4904 C.3     1  UNL1        0.0459
     28 C          60.8544   86.5691    8.0831 C.ar    1  UNL1       -0.0205
     29 C          62.1293   86.3466    8.8417 C.ar    1  UNL1       -0.0042
     30 C          63.0618   85.2446    8.4343 C.ar    1  UNL1       -0.0003
     31 C          62.7195   84.3650    7.2685 C.ar    1  UNL1       -0.0000
     32 C          61.4448   84.5875    6.5099 C.ar    1  UNL1       -0.0003
     33 C          60.5122   85.6895    6.9172 C.ar    1  UNL1       -0.0042
     34 C          62.6950   89.6558   11.6027 C.3     1  UNL1        0.1796
     35 N          63.6819   87.9927   15.0682 N.am    1  UNL1       -0.2567
     36 C          63.4446   88.2015   16.5346 C.3     1  UNL1        0.1168
     37 C          63.0698   88.9286   14.0686 C.2     1  UNL1        0.3047
     38 O          62.2203   90.0735   14.5353 O.2     1  UNL1       -0.2526
     39 N          63.3071   88.7198   12.6023 N.am    1  UNL1       -0.2805
     40 H          63.8647   87.9684   12.2960 H       1  UNL1        0.1514
     41 C          64.5314   86.8479   14.6015 C.3     1  UNL1        0.1413
     42 C          63.2975   83.3273   13.5298 C.ar    1  UNL1        0.0875
     43 N          64.0466   84.5955   13.2462 N.ar    1  UNL1       -0.2453
     44 C          63.9315   85.4813   14.4512 C.ar    1  UNL1        0.0858
     45 C          63.1112   84.7605   15.4796 C.ar    1  UNL1        0.0530
     46 S          62.7193   83.4293   14.9101 S.2     1  UNL1       -0.0705
     47 C          62.7791   80.8123   13.1351 C.3     1  UNL1        0.0069
     48 C          63.1520   82.1618   12.5968 C.3     1  UNL1        0.0465
     49 C          63.3794   82.3458   11.1256 C.3     1  UNL1        0.0069
     50 C          63.2226   91.0529   11.4623 C.3     1  UNL1        0.1715
     51 O          63.9344   91.7047   12.6106 O.3     1  UNL1       -0.3467
     52 C          65.3413   92.1958   12.4394 C.3     1  UNL1        0.1687
     53 C          66.2591   92.2701   13.6236 C.ar    1  UNL1        0.0073
     54 C          67.7279   92.0198   13.4510 C.ar    1  UNL1       -0.0019
     55 C          68.6456   92.0940   14.6352 C.ar    1  UNL1       -0.0002
     56 C          68.0944   92.4185   15.9920 C.ar    1  UNL1       -0.0000
     57 C          66.6256   92.6688   16.1646 C.ar    1  UNL1       -0.0002
     58 C          65.7079   92.5945   14.9804 C.ar    1  UNL1       -0.0019
@<TRIPOS>BOND
     1    47    48    1
     2    48    49    1
     3    48    42    1
     4    42    43   ar
     5    43    44   ar
     6    44    41    1
     7    41    35    1
     8    35    36    1
     9    35    37   am
    10    37    38    2
    11    37    39   am
    12    39    34    1
    13    34    50    1
    14    50    51    1
    15    51    52    1
    16    52    53    1
    17    53    54   ar
    18    54    55   ar
    19    55    56   ar
    20    56    57   ar
    21    57    58   ar
    22    34     1    1
    23     1     2    2
    24     1     3   am
    25     3     5    1
    26     5     6    1
    27     6     7    1
    28     8     7    1
    29     8    20    1
    30    20    21    1
    31    21    22   ar
    32    22    23   ar
    33    23    24   ar
    34    24    25   ar
    35    25    26   ar
    36     8     9    1
    37     9    10   am
    38    10    11    2
    39    10    13    1
    40    13    14    1
    41    14    15    1
    42    15    16   ar
    43    16    17   ar
    44    17    18   ar
    45    18    19   ar
    46     5    27    1
    47    27    28    1
    48    28    29   ar
    49    29    30   ar
    50    30    31   ar
    51    31    32   ar
    52    32    33   ar
    53    44    45   ar
    54    45    46   ar
    55    46    42   ar
    56    58    53   ar
    57    26    21   ar
    58    19    15   ar
    59    33    28   ar
    60    39    40    1
    61     3     4    1
    62     9    12    1
