@<TRIPOS>MOLECULE
*****
 25 27 0 0 0
SMALL
GASTEIGER

@<TRIPOS>ATOM
      1 O          62.7515   87.8428   11.8426 O.2     1  UNL1       -0.2696
      2 C          62.3073   88.5383   10.5899 C.2     1  UNL1        0.2554
      3 N          62.7037   89.9637   10.3427 N.am    1  UNL1       -0.2605
      4 H          62.4122   90.4202    9.5205 H       1  UNL1        0.1571
      5 C          63.5442   90.6937   11.3481 C.ar    1  UNL1        0.1657
      6 N          64.4826   91.8269   11.0563 N.ar    1  UNL1       -0.2239
      7 C          65.1122   92.2522   12.3496 C.ar    1  UNL1        0.0894
      8 C          66.1147   93.3195   12.6747 C.ar    1  UNL1        0.0228
      9 C          66.5679   93.5164   14.0909 C.ar    1  UNL1        0.0382
     10 C          66.0186   92.6460   15.1821 C.ar    1  UNL1        0.1343
     11 O          66.4719   92.8430   16.5984 O.3     1  UNL1       -0.5055
     12 C          65.0161   91.5786   14.8570 C.ar    1  UNL1        0.0447
     13 C          64.5629   91.3817   13.4408 C.ar    1  UNL1        0.0527
     14 S          63.5938   90.4185   12.8218 S.2     1  UNL1       -0.0513
     15 H          67.0982   93.5097   16.8014 H       1  UNL1        0.2922
     16 C          61.4668   87.8084    9.5846 C.ar    1  UNL1        0.1115
     17 C          61.7972   86.3919    9.2178 C.ar    1  UNL1        0.1469
     18 F          62.9681   85.7054    9.8564 F       1  UNL1       -0.2039
     19 C          60.9568   85.6619    8.2124 C.ar    1  UNL1        0.0330
     20 C          59.7859   86.3485    7.5738 C.ar    1  UNL1        0.0413
     21 C          59.4555   87.7649    7.9406 C.ar    1  UNL1        0.1613
     22 O          58.2847   88.4514    7.3020 O.3     1  UNL1       -0.5034
     23 C          60.2960   88.4949    8.9460 C.ar    1  UNL1        0.1800
     24 F          59.9657   89.9113    9.3127 F       1  UNL1       -0.2007
     25 H          57.7597   87.9954    6.6740 H       1  UNL1        0.2923
@<TRIPOS>BOND
     1     1     2    2
     2     2     3   am
     3     3     5    1
     4     5     6   ar
     5     6     7   ar
     6     7     8   ar
     7     8     9   ar
     8     9    10   ar
     9    10    11    1
    10    10    12   ar
    11    12    13   ar
    12    13    14   ar
    13     2    16    1
    14    16    17   ar
    15    17    18    1
    16    17    19   ar
    17    19    20   ar
    18    20    21   ar
    19    21    22    1
    20    21    23   ar
    21    23    24    1
    22    14     5   ar
    23    23    16   ar
    24    13     7   ar
    25     3     4    1
    26    11    15    1
    27    22    25    1
@<TRIPOS>MOLECULE
*****
 25 27 0 0 0
SMALL
GASTEIGER

@<TRIPOS>ATOM
      1 O          64.6585   91.6820   11.6102 O.2     1  UNL1       -0.2696
      2 C          64.7516   91.0173   12.9517 C.2     1  UNL1        0.2554
      3 N          63.9354   89.7923   13.2400 N.am    1  UNL1       -0.2605
      4 H          63.9965   89.3560   14.1204 H       1  UNL1        0.1571
      5 C          63.0262   89.2319   12.1868 C.ar    1  UNL1        0.1657
      6 N          62.8212   87.7776   11.8817 N.ar    1  UNL1       -0.2239
      7 C          61.8306   87.6743   10.7601 C.ar    1  UNL1        0.0894
      8 C          61.2468   86.4938   10.0421 C.ar    1  UNL1        0.0228
      9 C          60.2558   86.7038    8.9360 C.ar    1  UNL1        0.0382
     10 C          59.8485   88.0942    8.5478 C.ar    1  UNL1        0.1343
     11 O          58.8573   88.3042    7.4416 O.3     1  UNL1       -0.5055
     12 C          60.4322   89.2748    9.2658 C.ar    1  UNL1        0.0447
     13 C          61.4233   89.0648   10.3719 C.ar    1  UNL1        0.0527
     14 S          62.1622   90.0274   11.2537 S.2     1  UNL1       -0.0513
     15 H          58.4927   87.5667    6.9931 H       1  UNL1        0.2922
     16 C          65.6609   91.5777   14.0049 C.ar    1  UNL1        0.1115
     17 C          65.1354   91.8457   15.3841 C.ar    1  UNL1        0.1469
     18 F          63.7008   91.5534   15.7101 F       1  UNL1       -0.2039
     19 C          66.0447   92.4061   16.4373 C.ar    1  UNL1        0.0330
     20 C          67.4794   92.6984   16.1113 C.ar    1  UNL1        0.0413
     21 C          68.0048   92.4304   14.7322 C.ar    1  UNL1        0.1613
     22 O          69.4394   92.7227   14.4063 O.3     1  UNL1       -0.5034
     23 C          67.0955   91.8700   13.6790 C.ar    1  UNL1        0.1800
     24 F          67.6209   91.6020   12.2999 F       1  UNL1       -0.2007
     25 H          70.0074   93.0727   15.0642 H       1  UNL1        0.2923
@<TRIPOS>BOND
     1     1     2    2
     2     2     3   am
     3     3     5    1
     4     5     6   ar
     5     6     7   ar
     6     7     8   ar
     7     8     9   ar
     8     9    10   ar
     9    10    11    1
    10    10    12   ar
    11    12    13   ar
    12    13    14   ar
    13     2    16    1
    14    16    17   ar
    15    17    18    1
    16    17    19   ar
    17    19    20   ar
    18    20    21   ar
    19    21    22    1
    20    21    23   ar
    21    23    24    1
    22    14     5   ar
    23    23    16   ar
    24    13     7   ar
    25     3     4    1
    26    11    15    1
    27    22    25    1
@<TRIPOS>MOLECULE
*****
 25 27 0 0 0
SMALL
GASTEIGER

@<TRIPOS>ATOM
      1 O          64.3465   91.5587   11.2475 O.2     1  UNL1       -0.2696
      2 C          64.3810   90.9763   12.6294 C.2     1  UNL1        0.2554
      3 N          63.5577   89.7651   12.9535 N.am    1  UNL1       -0.2605
      4 H          63.5803   89.3828   13.8605 H       1  UNL1        0.1571
      5 C          62.6999   89.1362   11.8958 C.ar    1  UNL1        0.1657
      6 N          62.6418   87.6752   11.5612 N.ar    1  UNL1       -0.2239
      7 C          61.6557   87.4940   10.4455 C.ar    1  UNL1        0.0894
      8 C          61.1885   86.2749    9.7070 C.ar    1  UNL1        0.0228
      9 C          60.1700   86.4048    8.6135 C.ar    1  UNL1        0.0382
     10 C          59.6186   87.7539    8.2586 C.ar    1  UNL1        0.1343
     11 O          58.6000   87.8838    7.1651 O.3     1  UNL1       -0.5055
     12 C          60.0857   88.9730    8.9972 C.ar    1  UNL1        0.0447
     13 C          61.1043   88.8431   10.0906 C.ar    1  UNL1        0.0527
     14 S          61.7497   89.8580   10.9869 S.2     1  UNL1       -0.0513
     15 H          58.3082   87.1223    6.7037 H       1  UNL1        0.2922
     16 C          65.2387   91.6051   13.6871 C.ar    1  UNL1        0.1115
     17 C          66.6219   92.0768   13.3487 C.ar    1  UNL1        0.1469
     18 F          67.1472   91.9196   11.9525 F       1  UNL1       -0.2039
     19 C          67.4796   92.7056   14.4064 C.ar    1  UNL1        0.0330
     20 C          66.9542   92.8628   15.8026 C.ar    1  UNL1        0.0413
     21 C          65.5711   92.3912   16.1410 C.ar    1  UNL1        0.1613
     22 O          65.0458   92.5484   17.5372 O.3     1  UNL1       -0.5034
     23 C          64.7134   91.7623   15.0833 C.ar    1  UNL1        0.1800
     24 F          63.3303   91.2907   15.4217 F       1  UNL1       -0.2007
     25 H          65.5816   92.9412   18.1979 H       1  UNL1        0.2923
@<TRIPOS>BOND
     1     1     2    2
     2     2     3   am
     3     3     5    1
     4     5     6   ar
     5     6     7   ar
     6     7     8   ar
     7     8     9   ar
     8     9    10   ar
     9    10    11    1
    10    10    12   ar
    11    12    13   ar
    12    13    14   ar
    13     2    16    1
    14    16    17   ar
    15    17    18    1
    16    17    19   ar
    17    19    20   ar
    18    20    21   ar
    19    21    22    1
    20    21    23   ar
    21    23    24    1
    22    14     5   ar
    23    23    16   ar
    24    13     7   ar
    25     3     4    1
    26    11    15    1
    27    22    25    1
@<TRIPOS>MOLECULE
*****
 25 27 0 0 0
SMALL
GASTEIGER

@<TRIPOS>ATOM
      1 O          63.5901   88.5607   13.1930 O.2     1  UNL1       -0.2696
      2 C          63.6013   90.0531   13.0422 C.2     1  UNL1        0.2554
      3 N          62.8718   90.6971   11.9006 N.am    1  UNL1       -0.2605
      4 H          62.8792   91.6765   11.8016 H       1  UNL1        0.1571
      5 C          62.1312   89.8487   10.9098 C.ar    1  UNL1        0.1657
      6 N          61.0157   90.3059   10.0173 N.ar    1  UNL1       -0.2239
      7 C          60.5711   89.1339    9.1934 C.ar    1  UNL1        0.0894
      8 C          59.5093   88.9901    8.1437 C.ar    1  UNL1        0.0228
      9 C          59.2883   87.6645    7.4774 C.ar    1  UNL1        0.0382
     10 C          60.1289   86.4829    7.8608 C.ar    1  UNL1        0.1343
     11 O          59.9078   85.1573    7.1944 O.3     1  UNL1       -0.5055
     12 C          61.1907   86.6268    8.9105 C.ar    1  UNL1        0.0447
     13 C          61.4117   87.9523    9.5768 C.ar    1  UNL1        0.0527
     14 S          62.3759   88.3940   10.6376 S.2     1  UNL1       -0.0513
     15 H          59.2445   85.0674    6.5387 H       1  UNL1        0.2922
     16 C          64.3420   90.9015   14.0329 C.ar    1  UNL1        0.1115
     17 C          63.9846   90.8397   15.4885 C.ar    1  UNL1        0.1469
     18 F          62.8866   89.9296   15.9532 F       1  UNL1       -0.2039
     19 C          64.7252   91.6881   16.4793 C.ar    1  UNL1        0.0330
     20 C          65.8233   92.5983   16.0145 C.ar    1  UNL1        0.0413
     21 C          66.1806   92.6601   14.5590 C.ar    1  UNL1        0.1613
     22 O          67.2786   93.5702   14.0944 O.3     1  UNL1       -0.5034
     23 C          65.4400   91.8117   13.5683 C.ar    1  UNL1        0.1800
     24 F          65.7973   91.8734   12.1128 F       1  UNL1       -0.2007
     25 H          67.7413   94.1002   14.7133 H       1  UNL1        0.2923
@<TRIPOS>BOND
     1     1     2    2
     2     2     3   am
     3     3     5    1
     4     5     6   ar
     5     6     7   ar
     6     7     8   ar
     7     8     9   ar
     8     9    10   ar
     9    10    11    1
    10    10    12   ar
    11    12    13   ar
    12    13    14   ar
    13     2    16    1
    14    16    17   ar
    15    17    18    1
    16    17    19   ar
    17    19    20   ar
    18    20    21   ar
    19    21    22    1
    20    21    23   ar
    21    23    24    1
    22    14     5   ar
    23    23    16   ar
    24    13     7   ar
    25     3     4    1
    26    11    15    1
    27    22    25    1
@<TRIPOS>MOLECULE
*****
 25 27 0 0 0
SMALL
GASTEIGER

@<TRIPOS>ATOM
      1 O          61.6731   86.9850   11.4978 O.2     1  UNL1       -0.2696
      2 C          62.8667   87.4689   12.2668 C.2     1  UNL1        0.2554
      3 N          63.6966   86.4976   13.0529 N.am    1  UNL1       -0.2605
      4 H          64.4800   86.8151   13.5576 H       1  UNL1        0.1571
      5 C          63.3329   85.0424   13.0700 C.ar    1  UNL1        0.1657
      6 N          62.5473   84.3425   14.1390 N.ar    1  UNL1       -0.2239
      7 C          62.4198   82.8992   13.7508 C.ar    1  UNL1        0.0894
      8 C          61.7514   81.7351   14.4201 C.ar    1  UNL1        0.0228
      9 C          61.7899   80.3789   13.7804 C.ar    1  UNL1        0.0382
     10 C          62.4967   80.1868   12.4714 C.ar    1  UNL1        0.1343
     11 O          62.5352   78.8306   11.8317 O.3     1  UNL1       -0.5055
     12 C          63.1651   81.3510   11.8021 C.ar    1  UNL1        0.0447
     13 C          63.1267   82.7071   12.4418 C.ar    1  UNL1        0.0527
     14 S          63.6910   84.0317   12.0210 S.2     1  UNL1       -0.0513
     15 H          62.1177   78.1034   12.2498 H       1  UNL1        0.2922
     16 C          63.2304   88.9240   12.2497 C.ar    1  UNL1        0.1115
     17 C          63.7946   89.5706   13.4801 C.ar    1  UNL1        0.1469
     18 F          63.9951   88.7620   14.7275 F       1  UNL1       -0.2039
     19 C          64.1583   91.0257   13.4630 C.ar    1  UNL1        0.0330
     20 C          63.9578   91.8343   12.2155 C.ar    1  UNL1        0.0413
     21 C          63.3937   91.1877   10.9852 C.ar    1  UNL1        0.1613
     22 O          63.1932   91.9963    9.7379 O.3     1  UNL1       -0.5034
     23 C          63.0300   89.7326   11.0023 C.ar    1  UNL1        0.1800
     24 F          62.4658   89.0860    9.7721 F       1  UNL1       -0.2007
     25 H          63.4204   92.9052    9.7272 H       1  UNL1        0.2923
@<TRIPOS>BOND
     1     1     2    2
     2     2     3   am
     3     3     5    1
     4     5     6   ar
     5     6     7   ar
     6     7     8   ar
     7     8     9   ar
     8     9    10   ar
     9    10    11    1
    10    10    12   ar
    11    12    13   ar
    12    13    14   ar
    13     2    16    1
    14    16    17   ar
    15    17    18    1
    16    17    19   ar
    17    19    20   ar
    18    20    21   ar
    19    21    22    1
    20    21    23   ar
    21    23    24    1
    22    14     5   ar
    23    23    16   ar
    24    13     7   ar
    25     3     4    1
    26    11    15    1
    27    22    25    1
@<TRIPOS>MOLECULE
*****
 25 27 0 0 0
SMALL
GASTEIGER

@<TRIPOS>ATOM
      1 O          61.3492   87.0021   11.4998 O.2     1  UNL1       -0.2696
      2 C          62.6421   87.5174   12.0592 C.2     1  UNL1        0.2554
      3 N          63.5913   86.5779   12.7420 N.am    1  UNL1       -0.2605
      4 H          64.4399   86.9161   13.1091 H       1  UNL1        0.1571
      5 C          63.2477   85.1230   12.8654 C.ar    1  UNL1        0.1657
      6 N          62.5149   84.4840   14.0077 N.ar    1  UNL1       -0.2239
      7 C          62.3908   83.0177   13.7165 C.ar    1  UNL1        0.0894
      8 C          61.7652   81.8914   14.4845 C.ar    1  UNL1        0.0228
      9 C          61.7956   80.4979   13.9303 C.ar    1  UNL1        0.0382
     10 C          62.4517   80.2307   12.6081 C.ar    1  UNL1        0.1343
     11 O          62.4821   78.8371   12.0540 O.3     1  UNL1       -0.5055
     12 C          63.0773   81.3571   11.8401 C.ar    1  UNL1        0.0447
     13 C          63.0469   82.7506   12.3943 C.ar    1  UNL1        0.0527
     14 S          63.5765   84.0517   11.8683 S.2     1  UNL1       -0.0513
     15 H          62.0913   78.1335   12.5337 H       1  UNL1        0.2922
     16 C          62.9858   88.9723   11.9358 C.ar    1  UNL1        0.1115
     17 C          62.7262   89.6977   10.6487 C.ar    1  UNL1        0.1469
     18 F          62.1229   88.9682    9.4851 F       1  UNL1       -0.2039
     19 C          63.0698   91.1525   10.5252 C.ar    1  UNL1        0.0330
     20 C          63.6731   91.8820   11.6888 C.ar    1  UNL1        0.0413
     21 C          63.9327   91.1567   12.9758 C.ar    1  UNL1        0.1613
     22 O          64.5359   91.8862   14.1394 O.3     1  UNL1       -0.5034
     23 C          63.5890   89.7018   13.0993 C.ar    1  UNL1        0.1800
     24 F          63.8486   88.9764   14.3863 F       1  UNL1       -0.2007
     25 H          64.7506   92.7950   14.0622 H       1  UNL1        0.2923
@<TRIPOS>BOND
     1     1     2    2
     2     2     3   am
     3     3     5    1
     4     5     6   ar
     5     6     7   ar
     6     7     8   ar
     7     8     9   ar
     8     9    10   ar
     9    10    11    1
    10    10    12   ar
    11    12    13   ar
    12    13    14   ar
    13     2    16    1
    14    16    17   ar
    15    17    18    1
    16    17    19   ar
    17    19    20   ar
    18    20    21   ar
    19    21    22    1
    20    21    23   ar
    21    23    24    1
    22    14     5   ar
    23    23    16   ar
    24    13     7   ar
    25     3     4    1
    26    11    15    1
    27    22    25    1
@<TRIPOS>MOLECULE
*****
 25 27 0 0 0
SMALL
GASTEIGER

@<TRIPOS>ATOM
      1 O          65.0279   84.9303   14.0119 O.2     1  UNL1       -0.2696
      2 C          63.7036   84.6459   13.3673 C.2     1  UNL1        0.2554
      3 N          62.8403   85.7783   12.8959 N.am    1  UNL1       -0.2605
      4 H          61.9711   85.5916   12.4728 H       1  UNL1        0.1571
      5 C          63.3011   87.1952   13.0691 C.ar    1  UNL1        0.1657
      6 N          63.0946   88.3151   12.0928 N.ar    1  UNL1       -0.2239
      7 C          63.7152   89.5530   12.6693 C.ar    1  UNL1        0.0894
      8 C          63.8192   90.9575   12.1530 C.ar    1  UNL1        0.0228
      9 C          64.5134   92.0071   12.9693 C.ar    1  UNL1        0.0382
     10 C          65.1036   91.6522   14.3019 C.ar    1  UNL1        0.1343
     11 O          65.7979   92.7019   15.1182 O.3     1  UNL1       -0.5055
     12 C          64.9996   90.2478   14.8182 C.ar    1  UNL1        0.0447
     13 C          64.3054   89.1982   14.0019 C.ar    1  UNL1        0.0527
     14 S          64.0495   87.7409   14.2489 S.2     1  UNL1       -0.0513
     15 H          65.8628   93.5793   14.7957 H       1  UNL1        0.2922
     16 C          63.2427   83.2289   13.1941 C.ar    1  UNL1        0.1115
     17 C          62.6372   82.4905   14.3508 C.ar    1  UNL1        0.1469
     18 F          62.4925   83.1690   15.6807 F       1  UNL1       -0.2039
     19 C          62.1763   81.0736   14.1776 C.ar    1  UNL1        0.0330
     20 C          62.3210   80.3951   12.8476 C.ar    1  UNL1        0.0413
     21 C          62.9266   81.1336   11.6909 C.ar    1  UNL1        0.1613
     22 O          63.0712   80.4551   10.3610 O.3     1  UNL1       -0.5034
     23 C          63.3874   82.5505   11.8642 C.ar    1  UNL1        0.1800
     24 F          63.9930   83.2889   10.7075 F       1  UNL1       -0.2007
     25 H          62.7834   79.5700   10.2529 H       1  UNL1        0.2923
@<TRIPOS>BOND
     1     1     2    2
     2     2     3   am
     3     3     5    1
     4     5     6   ar
     5     6     7   ar
     6     7     8   ar
     7     8     9   ar
     8     9    10   ar
     9    10    11    1
    10    10    12   ar
    11    12    13   ar
    12    13    14   ar
    13     2    16    1
    14    16    17   ar
    15    17    18    1
    16    17    19   ar
    17    19    20   ar
    18    20    21   ar
    19    21    22    1
    20    21    23   ar
    21    23    24    1
    22    14     5   ar
    23    23    16   ar
    24    13     7   ar
    25     3     4    1
    26    11    15    1
    27    22    25    1
@<TRIPOS>MOLECULE
*****
 25 27 0 0 0
SMALL
GASTEIGER

@<TRIPOS>ATOM
      1 O          63.3404   91.0363   12.6918 O.2     1  UNL1       -0.2696
      2 C          64.2742   90.7032   13.8175 C.2     1  UNL1        0.2554
      3 N          65.5634   91.4547   13.9697 N.am    1  UNL1       -0.2605
      4 H          66.1763   91.2361   14.7085 H       1  UNL1        0.1571
      5 C          65.9189   92.5392   12.9963 C.ar    1  UNL1        0.1657
      6 N          65.7651   94.0137   13.2243 N.ar    1  UNL1       -0.2239
      7 C          66.2417   94.7254   11.9929 C.ar    1  UNL1        0.0894
      8 C          66.3253   96.1820   11.6445 C.ar    1  UNL1        0.0228
      9 C          66.8573   96.6038   10.3070 C.ar    1  UNL1        0.0382
     10 C          67.3057   95.5690    9.3179 C.ar    1  UNL1        0.1343
     11 O          67.8377   95.9909    7.9803 O.3     1  UNL1       -0.5055
     12 C          67.2220   94.1125    9.6663 C.ar    1  UNL1        0.0447
     13 C          66.6900   93.6907   11.0038 C.ar    1  UNL1        0.0527
     14 S          66.4905   92.3395   11.6240 S.2     1  UNL1       -0.0513
     15 H          67.8899   96.9008    7.7626 H       1  UNL1        0.2922
     16 C          63.9188   89.6187   14.7909 C.ar    1  UNL1        0.1115
     17 C          63.5719   89.9671   16.2081 C.ar    1  UNL1        0.1469
     18 F          63.5804   91.3999   16.6518 F       1  UNL1       -0.2039
     19 C          63.2164   88.8826   17.1815 C.ar    1  UNL1        0.0330
     20 C          63.2079   87.4497   16.7377 C.ar    1  UNL1        0.0413
     21 C          63.5548   87.1014   15.3206 C.ar    1  UNL1        0.1613
     22 O          63.5463   85.6686   14.8769 O.3     1  UNL1       -0.5034
     23 C          63.9103   88.1859   14.3472 C.ar    1  UNL1        0.1800
     24 F          64.2572   87.8376   12.9301 F       1  UNL1       -0.2007
     25 H          63.3243   84.9912   15.4850 H       1  UNL1        0.2923
@<TRIPOS>BOND
     1     1     2    2
     2     2     3   am
     3     3     5    1
     4     5     6   ar
     5     6     7   ar
     6     7     8   ar
     7     8     9   ar
     8     9    10   ar
     9    10    11    1
    10    10    12   ar
    11    12    13   ar
    12    13    14   ar
    13     2    16    1
    14    16    17   ar
    15    17    18    1
    16    17    19   ar
    17    19    20   ar
    18    20    21   ar
    19    21    22    1
    20    21    23   ar
    21    23    24    1
    22    14     5   ar
    23    23    16   ar
    24    13     7   ar
    25     3     4    1
    26    11    15    1
    27    22    25    1
@<TRIPOS>MOLECULE
*****
 25 27 0 0 0
SMALL
GASTEIGER

@<TRIPOS>ATOM
      1 O          65.1216   84.9025   13.8498 O.2     1  UNL1       -0.2696
      2 C          63.7566   84.6256   13.2928 C.2     1  UNL1        0.2554
      3 N          62.8538   85.7639   12.9198 N.am    1  UNL1       -0.2605
      4 H          61.9579   85.5822   12.5542 H       1  UNL1        0.1571
      5 C          63.3159   87.1790   13.1039 C.ar    1  UNL1        0.1657
      6 N          63.1131   88.3059   12.1348 N.ar    1  UNL1       -0.2239
      7 C          63.7337   89.5391   12.7213 C.ar    1  UNL1        0.0894
      8 C          63.8407   90.9469   12.2149 C.ar    1  UNL1        0.0228
      9 C          64.5340   91.9901   13.0401 C.ar    1  UNL1        0.0382
     10 C          65.1204   91.6254   14.3717 C.ar    1  UNL1        0.1343
     11 O          65.8138   92.6687   15.1969 O.3     1  UNL1       -0.5055
     12 C          65.0135   90.2176   14.8781 C.ar    1  UNL1        0.0447
     13 C          64.3201   89.1744   14.0529 C.ar    1  UNL1        0.0527
     14 S          64.0619   87.7159   14.2893 S.2     1  UNL1       -0.0513
     15 H          65.8806   93.5482   14.8806 H       1  UNL1        0.2922
     16 C          63.2946   83.2105   13.1087 C.ar    1  UNL1        0.1115
     17 C          63.8745   82.3690   12.0107 C.ar    1  UNL1        0.1469
     18 F          64.9164   82.9426   11.0967 F       1  UNL1       -0.2039
     19 C          63.4124   80.9538   11.8266 C.ar    1  UNL1        0.0330
     20 C          62.3704   80.3802   12.7406 C.ar    1  UNL1        0.0413
     21 C          61.7906   81.2217   13.8386 C.ar    1  UNL1        0.1613
     22 O          60.7487   80.6481   14.7525 O.3     1  UNL1       -0.5034
     23 C          62.2527   82.6369   14.0227 C.ar    1  UNL1        0.1800
     24 F          61.6728   83.4784   15.1207 F       1  UNL1       -0.2007
     25 H          60.4601   79.7641   14.6376 H       1  UNL1        0.2923
@<TRIPOS>BOND
     1     1     2    2
     2     2     3   am
     3     3     5    1
     4     5     6   ar
     5     6     7   ar
     6     7     8   ar
     7     8     9   ar
     8     9    10   ar
     9    10    11    1
    10    10    12   ar
    11    12    13   ar
    12    13    14   ar
    13     2    16    1
    14    16    17   ar
    15    17    18    1
    16    17    19   ar
    17    19    20   ar
    18    20    21   ar
    19    21    22    1
    20    21    23   ar
    21    23    24    1
    22    14     5   ar
    23    23    16   ar
    24    13     7   ar
    25     3     4    1
    26    11    15    1
    27    22    25    1
