@<TRIPOS>MOLECULE
*****
 43 48 0 0 0
SMALL
GASTEIGER

@<TRIPOS>ATOM
      1 C          64.2764   89.7631   14.6397 C.ar    1  UNL1        0.0620
      2 C          65.3422   90.2868   15.5561 C.ar    1  UNL1        0.0150
      3 C          66.1126   91.5189   15.1838 C.ar    1  UNL1        0.0064
      4 C          67.1784   92.0425   16.1002 C.ar    1  UNL1        0.0002
      5 C          67.9487   93.2746   15.7278 C.ar    1  UNL1        0.0006
      6 C          67.6532   93.9829   14.4390 C.ar    1  UNL1        0.0084
      7 C          66.5874   93.4592   13.5226 C.ar    1  UNL1        0.0465
      8 C          65.8171   92.2272   13.8950 C.ar    1  UNL1        0.0642
      9 C          64.7512   91.7035   12.9786 C.ar    1  UNL1        0.2650
     10 O          64.4558   92.4118   11.6898 O.2     1  UNL1       -0.2666
     11 N          63.9809   90.4715   13.3510 N.ar    1  UNL1       -0.2766
     12 C          62.9151   89.9477   12.4345 C.ar    1  UNL1        0.0666
     13 C          63.2947   89.2947   11.1386 C.ar    1  UNL1        0.0176
     14 C          62.2290   88.7710   10.2222 C.ar    1  UNL1        0.0015
     15 C          60.7836   88.9003   10.6017 C.ar    1  UNL1        0.0001
     16 C          60.4039   89.5533   11.8977 C.ar    1  UNL1        0.0015
     17 C          61.4697   90.0770   12.8141 C.ar    1  UNL1        0.0176
     18 C          62.6301   88.5336   16.2297 C.3     1  UNL1        0.0278
     19 C          63.5060   88.5310   15.0121 C.3     1  UNL1        0.1106
     20 N          63.6116   87.2964   14.1667 N.am    1  UNL1       -0.2972
     21 C          63.7658   85.9534   14.8166 C.2     1  UNL1        0.2518
     22 O          63.8145   85.8449   16.3119 O.2     1  UNL1       -0.2699
     23 H          63.5797   87.3676   13.1853 H       1  UNL1        0.1500
     24 C          63.8714   84.7188   13.9712 C.ar    1  UNL1        0.1218
     25 C          64.3100   83.3634   14.4410 C.ar    1  UNL1        0.1529
     26 N          64.7200   83.0047   15.8385 N.pl3   1  UNL1       -0.3411
     27 N          64.2666   82.4298   13.2678 N.ar    1  UNL1       -0.1489
     28 N          63.8013   83.2081   12.0729 N.ar    1  UNL1       -0.2093
     29 C          63.5683   82.8114   10.6452 C.ar    1  UNL1        0.1037
     30 C          63.0911   83.8294    9.6523 C.ar    1  UNL1        0.0414
     31 C          62.8469   85.2441   10.0871 C.ar    1  UNL1        0.1022
     32 N          63.0798   85.6408   11.5148 N.ar    1  UNL1       -0.2247
     33 C          63.5570   84.6228   12.5077 C.ar    1  UNL1        0.1709
     34 H          64.7157   83.6911   16.5443 H       1  UNL1        0.1438
     35 H          64.9934   82.0828   16.0500 H       1  UNL1        0.1438
     36 C          66.2919   94.1676   12.2338 C.1     1  UNL1       -0.0595
     37 C          65.9964   94.8759   10.9451 C.1     1  UNL1       -0.0566
     38 C          65.7009   95.5843    9.6563 C.ar    1  UNL1        0.0815
     39 C          64.4240   96.2919    9.3118 C.ar    1  UNL1        0.1299
     40 N          64.5644   96.8544    7.9283 N.ar    1  UNL1       -0.1669
     41 N          65.9281   96.4943    7.4178 N.ar    1  UNL1       -0.2467
     42 C          66.4907   96.8558    6.0751 C.3     1  UNL1        0.1538
     43 C          66.6305   95.7094    8.4857 C.ar    1  UNL1        0.1049
@<TRIPOS>BOND
     1    19    18    1
     2    19    20    1
     3    20    21   am
     4    21    22    2
     5    21    24    1
     6    24    25   ar
     7    25    26    1
     8    25    27   ar
     9    27    28   ar
    10    28    29   ar
    11    29    30   ar
    12    30    31   ar
    13    31    32   ar
    14    32    33   ar
    15    19     1    1
    16     1     2   ar
    17     2     3   ar
    18     3     4   ar
    19     4     5   ar
    20     5     6   ar
    21     6     7   ar
    22     7    36    1
    23    36    37    3
    24    37    38    1
    25    38    39   ar
    26    39    40   ar
    27    40    41   ar
    28    41    42    1
    29    41    43   ar
    30     7     8   ar
    31     8     9   ar
    32     9    10    2
    33     9    11   ar
    34    11    12    1
    35    12    13   ar
    36    13    14   ar
    37    14    15   ar
    38    15    16   ar
    39    16    17   ar
    40    33    24   ar
    41    11     1   ar
    42    17    12   ar
    43    33    28   ar
    44     8     3   ar
    45    43    38   ar
    46    20    23    1
    47    26    34    1
    48    26    35    1
@<TRIPOS>MOLECULE
*****
 43 48 0 0 0
SMALL
GASTEIGER

@<TRIPOS>ATOM
      1 C          64.2732   89.5197   14.3159 C.ar    1  UNL1        0.0620
      2 C          65.4924   89.8669   15.1177 C.ar    1  UNL1        0.0150
      3 C          66.3567   91.0219   14.7064 C.ar    1  UNL1        0.0064
      4 C          67.5759   91.3692   15.5081 C.ar    1  UNL1        0.0002
      5 C          68.4401   92.5241   15.0968 C.ar    1  UNL1        0.0006
      6 C          68.0852   93.3317   13.8836 C.ar    1  UNL1        0.0084
      7 C          66.8660   92.9844   13.0818 C.ar    1  UNL1        0.0465
      8 C          66.0017   91.8295   13.4932 C.ar    1  UNL1        0.0642
      9 C          64.7825   91.4822   12.6914 C.ar    1  UNL1        0.2650
     10 O          64.4275   92.2898   11.4782 O.2     1  UNL1       -0.2666
     11 N          63.9182   90.3273   13.1028 N.ar    1  UNL1       -0.2766
     12 C          62.6990   89.9799   12.3010 C.ar    1  UNL1        0.0666
     13 C          62.8350   89.5965   10.8572 C.ar    1  UNL1        0.0176
     14 C          61.6158   89.2492   10.0554 C.ar    1  UNL1        0.0015
     15 C          60.2606   89.2853   10.6974 C.ar    1  UNL1        0.0001
     16 C          60.1246   89.6687   12.1411 C.ar    1  UNL1        0.0015
     17 C          61.3438   90.0160   12.9429 C.ar    1  UNL1        0.0176
     18 C          62.8853   88.2822   16.1304 C.3     1  UNL1        0.0278
     19 C          63.4089   88.3647   14.7273 C.3     1  UNL1        0.1106
     20 N          63.0683   87.2923   13.7354 N.am    1  UNL1       -0.2972
     21 C          63.6256   85.9100   13.9043 C.2     1  UNL1        0.2518
     22 O          64.5235   85.6001   15.0652 O.2     1  UNL1       -0.2699
     23 H          62.4789   87.4957   12.9734 H       1  UNL1        0.1500
     24 C          63.2850   84.8375   12.9124 C.ar    1  UNL1        0.1218
     25 C          62.8882   85.0533   11.4820 C.ar    1  UNL1        0.1529
     26 N          62.7623   86.3794   10.7924 N.pl3   1  UNL1       -0.3411
     27 N          62.6393   83.7102   10.8623 N.ar    1  UNL1       -0.1489
     28 N          62.8823   82.6643   11.9097 N.ar    1  UNL1       -0.2093
     29 C          62.7917   81.1674   11.8734 C.ar    1  UNL1        0.1037
     30 C          63.1003   80.3674   13.1041 C.ar    1  UNL1        0.0414
     31 C          63.4993   81.0641   14.3711 C.ar    1  UNL1        0.1022
     32 N          63.5898   82.5610   14.4074 N.ar    1  UNL1       -0.2247
     33 C          63.2813   83.3610   13.1767 C.ar    1  UNL1        0.1709
     34 H          62.9478   87.2107   11.2863 H       1  UNL1        0.1438
     35 H          62.4942   86.4186    9.8459 H       1  UNL1        0.1438
     36 C          66.5110   93.7920   11.8687 C.1     1  UNL1       -0.0595
     37 C          66.1560   94.5997   10.6555 C.1     1  UNL1       -0.0566
     38 C          65.8010   95.4073    9.4424 C.ar    1  UNL1        0.0815
     39 C          64.5509   96.2149    9.2556 C.ar    1  UNL1        0.1299
     40 N          64.6111   96.8558    7.9008 N.ar    1  UNL1       -0.1669
     41 N          65.8985   96.4444    7.2502 N.ar    1  UNL1       -0.2467
     42 C          66.3681   96.8559    5.8863 C.3     1  UNL1        0.1538
     43 C          66.6339   95.5492    8.2030 C.ar    1  UNL1        0.1049
@<TRIPOS>BOND
     1    19    18    1
     2    19    20    1
     3    20    21   am
     4    21    22    2
     5    21    24    1
     6    24    25   ar
     7    25    26    1
     8    25    27   ar
     9    27    28   ar
    10    28    29   ar
    11    29    30   ar
    12    30    31   ar
    13    31    32   ar
    14    32    33   ar
    15    19     1    1
    16     1     2   ar
    17     2     3   ar
    18     3     4   ar
    19     4     5   ar
    20     5     6   ar
    21     6     7   ar
    22     7    36    1
    23    36    37    3
    24    37    38    1
    25    38    39   ar
    26    39    40   ar
    27    40    41   ar
    28    41    42    1
    29    41    43   ar
    30     7     8   ar
    31     8     9   ar
    32     9    10    2
    33     9    11   ar
    34    11    12    1
    35    12    13   ar
    36    13    14   ar
    37    14    15   ar
    38    15    16   ar
    39    16    17   ar
    40    33    24   ar
    41    11     1   ar
    42    17    12   ar
    43    33    28   ar
    44     8     3   ar
    45    43    38   ar
    46    20    23    1
    47    26    34    1
    48    26    35    1
@<TRIPOS>MOLECULE
*****
 43 48 0 0 0
SMALL
GASTEIGER

@<TRIPOS>ATOM
      1 C          60.2126   95.2682   -0.1823 C.ar    1  UNL1        0.0620
      2 C          59.0147   95.0797   -1.0651 C.ar    1  UNL1        0.0150
      3 C          59.1975   94.7823   -2.5240 C.ar    1  UNL1        0.0064
      4 C          57.9996   94.5939   -3.4068 C.ar    1  UNL1        0.0002
      5 C          58.1824   94.2965   -4.8656 C.ar    1  UNL1        0.0006
      6 C          59.5631   94.1875   -5.4415 C.ar    1  UNL1        0.0084
      7 C          60.7610   94.3760   -4.5587 C.ar    1  UNL1        0.0465
      8 C          60.5782   94.6734   -3.1000 C.ar    1  UNL1        0.0642
      9 C          61.7762   94.8619   -2.2170 C.ar    1  UNL1        0.2650
     10 O          63.1569   94.7529   -2.7930 O.2     1  UNL1       -0.2666
     11 N          61.5934   95.1593   -0.7583 N.ar    1  UNL1       -0.2766
     12 C          62.7913   95.3477    0.1246 C.ar    1  UNL1        0.0666
     13 C          63.7548   94.2171    0.3329 C.ar    1  UNL1        0.0176
     14 C          64.9527   94.4055    1.2157 C.ar    1  UNL1        0.0015
     15 C          65.1871   95.7246    1.8903 C.ar    1  UNL1        0.0001
     16 C          64.2236   96.8552    1.6821 C.ar    1  UNL1        0.0015
     17 C          63.0257   96.6668    0.7992 C.ar    1  UNL1        0.0176
     18 C          59.3965   96.8559    1.7053 C.3     1  UNL1        0.0278
     19 C          60.0299   95.5656    1.2766 C.3     1  UNL1        0.1106
     20 N          60.4805   94.5727    2.3066 N.am    1  UNL1       -0.2972
     21 C          59.9439   93.1721    2.2834 C.2     1  UNL1        0.2518
     22 O          58.9567   92.7646    1.2302 O.2     1  UNL1       -0.2699
     23 H          61.1285   94.8402    2.9979 H       1  UNL1        0.1500
     24 C          60.3946   92.1792    3.3135 C.ar    1  UNL1        0.1218
     25 C          61.8011   91.7014    3.5215 C.ar    1  UNL1        0.1529
     26 N          63.0041   92.1328    2.7361 N.pl3   1  UNL1       -0.3411
     27 N          61.7937   90.7166    4.6530 N.ar    1  UNL1       -0.1489
     28 N          60.3824   90.5857    5.1441 N.ar    1  UNL1       -0.2093
     29 C          59.7730   89.7602    6.2383 C.ar    1  UNL1        0.1037
     30 C          58.2989   89.8386    6.5045 C.ar    1  UNL1        0.0414
     31 C          57.4343   90.7425    5.6767 C.ar    1  UNL1        0.1022
     32 N          58.0437   91.5680    4.5826 N.ar    1  UNL1       -0.2247
     33 C          59.5178   91.4896    4.3163 C.ar    1  UNL1        0.1709
     34 H          62.9074   92.7881    2.0078 H       1  UNL1        0.1438
     35 H          63.8903   91.7606    2.9489 H       1  UNL1        0.1438
     36 C          62.1417   94.2670   -5.1347 C.1     1  UNL1       -0.0595
     37 C          63.5224   94.1581   -5.7107 C.1     1  UNL1       -0.0566
     38 C          64.9032   94.0491   -6.2866 C.ar    1  UNL1        0.0815
     39 C          65.5342   92.8035   -6.8346 C.ar    1  UNL1        0.1299
     40 N          66.9163   93.1512   -7.3024 N.ar    1  UNL1       -0.1669
     41 N          67.1395   94.6118   -7.0436 N.ar    1  UNL1       -0.2467
     42 C          68.3877   95.3821   -7.3574 C.3     1  UNL1        0.1538
     43 C          65.8953   95.1667   -6.4158 C.ar    1  UNL1        0.1049
@<TRIPOS>BOND
     1    19    18    1
     2    19    20    1
     3    20    21   am
     4    21    22    2
     5    21    24    1
     6    24    25   ar
     7    25    26    1
     8    25    27   ar
     9    27    28   ar
    10    28    29   ar
    11    29    30   ar
    12    30    31   ar
    13    31    32   ar
    14    32    33   ar
    15    19     1    1
    16     1     2   ar
    17     2     3   ar
    18     3     4   ar
    19     4     5   ar
    20     5     6   ar
    21     6     7   ar
    22     7    36    1
    23    36    37    3
    24    37    38    1
    25    38    39   ar
    26    39    40   ar
    27    40    41   ar
    28    41    42    1
    29    41    43   ar
    30     7     8   ar
    31     8     9   ar
    32     9    10    2
    33     9    11   ar
    34    11    12    1
    35    12    13   ar
    36    13    14   ar
    37    14    15   ar
    38    15    16   ar
    39    16    17   ar
    40    33    24   ar
    41    11     1   ar
    42    17    12   ar
    43    33    28   ar
    44     8     3   ar
    45    43    38   ar
    46    20    23    1
    47    26    34    1
    48    26    35    1
