@<TRIPOS>MOLECULE
*****
 36 38 0 0 0
SMALL
GASTEIGER

@<TRIPOS>ATOM
      1 C          65.5252   93.1127   12.1068 C.ar    1  UNL1        0.0696
      2 C          66.2535   92.6527   13.3348 C.ar    1  UNL1        0.0057
      3 C          65.8253   91.3969   14.0344 C.ar    1  UNL1       -0.0041
      4 C          64.6689   90.6010   13.5061 C.ar    1  UNL1       -0.0185
      5 C          63.9406   91.0610   12.2781 C.ar    1  UNL1        0.0677
      6 C          64.3688   92.3169   11.5785 C.ar    1  UNL1        0.0095
      7 C          64.2407   89.3451   14.2057 C.3     1  UNL1        0.0257
      8 C          64.2747   88.0331   13.4794 C.3     1  UNL1        0.0259
      9 C          63.8465   86.7773   14.1790 C.3     1  UNL1        0.0940
     10 N          63.3844   86.8334   15.6049 N.am    1  UNL1       -0.2760
     11 C          62.9562   85.5775   16.3046 C.2     1  UNL1        0.2505
     12 O          62.4941   85.6336   17.7305 O.2     1  UNL1       -0.2699
     13 C          63.3504   88.1454   16.3312 C.3     1  UNL1        0.0940
     14 C          63.7786   89.4012   15.6316 C.3     1  UNL1        0.0259
     15 C          62.9902   84.2655   15.5783 C.ar    1  UNL1        0.0729
     16 C          61.7258   83.6866   15.0159 C.ar    1  UNL1        0.0109
     17 C          61.7598   82.3747   14.2896 C.ar    1  UNL1        0.0577
     18 C          63.0581   81.6415   14.1257 C.ar    1  UNL1        0.2216
     19 O          63.0920   80.3295   13.3994 O.3     1  UNL1       -0.4919
     20 N          64.3224   82.2204   14.6881 N.ar    1  UNL1       -0.2101
     21 C          64.2885   83.5324   15.4144 C.ar    1  UNL1        0.1065
     22 H          62.3022   79.9679   13.0480 H       1  UNL1        0.2937
     23 N          66.1757   94.3622    9.9238 N.am    1  UNL1       -0.1708
     24 C          65.9534   94.3686   11.4072 C.2     1  UNL1        0.3078
     25 O          66.1592   95.6308   12.1910 O.2     1  UNL1       -0.2516
     26 H          66.0406   93.5338    9.4094 H       1  UNL1        0.2545
     27 N          65.7401   96.8428    9.2860 N.pl3   1  UNL1       -0.1313
     28 C          66.6039   95.6181    9.2242 C.2     1  UNL1        0.3751
     29 N          67.8959   95.6492    8.4628 N.pl3   1  UNL1       -0.2906
     30 H          66.0211   97.6671    8.8268 H       1  UNL1        0.3060
     31 H          68.1770   96.4735    8.0036 H       1  UNL1        0.2545
     32 H          68.4629   94.8454    8.4222 H       1  UNL1        0.2545
     33 C          62.7841   90.2651   11.7497 C.3     1  UNL1        0.4183
     34 F          61.6277   89.4693   11.2213 F       1  UNL1       -0.1659
     35 F          63.5146   90.0630   10.4553 F       1  UNL1       -0.1659
     36 F          62.0537   90.4672   13.0441 F       1  UNL1       -0.1659
@<TRIPOS>BOND
     1    27    28    2
     2    28    29    1
     3    28    23    1
     4    23    24   am
     5    24    25    2
     6    24     1    1
     7     1     2   ar
     8     2     3   ar
     9     3     4   ar
    10     4     7    1
    11     7     8    1
    12     8     9    1
    13     9    10    1
    14    10    11   am
    15    11    12    2
    16    11    15    1
    17    15    16   ar
    18    16    17   ar
    19    17    18   ar
    20    18    19    1
    21    18    20   ar
    22    20    21   ar
    23    10    13    1
    24    13    14    1
    25     4     5   ar
    26     5    33    1
    27    33    34    1
    28    33    35    1
    29    33    36    1
    30     5     6   ar
    31     6     1   ar
    32    14     7    1
    33    21    15   ar
    34    27    30    1
    35    29    31    1
    36    29    32    1
    37    23    26    1
    38    19    22    1
@<TRIPOS>MOLECULE
*****
 36 38 0 0 0
SMALL
GASTEIGER

@<TRIPOS>ATOM
      1 C          60.3704   91.3433    4.4887 C.ar    1  UNL1        0.0696
      2 C          61.8131   91.0161    4.2406 C.ar    1  UNL1        0.0057
      3 C          62.5760   91.7482    3.1767 C.ar    1  UNL1       -0.0041
      4 C          61.8963   92.8076    2.3609 C.ar    1  UNL1       -0.0185
      5 C          60.4536   93.1348    2.6089 C.ar    1  UNL1        0.0677
      6 C          59.6907   92.4026    3.6728 C.ar    1  UNL1        0.0095
      7 C          62.6592   93.5397    1.2970 C.3     1  UNL1        0.0257
      8 C          62.1574   93.5453   -0.1165 C.3     1  UNL1        0.0259
      9 C          62.9203   94.2775   -1.1804 C.3     1  UNL1        0.0940
     10 N          64.1851   95.0040   -0.8308 N.am    1  UNL1       -0.2760
     11 C          64.9481   95.7362   -1.8947 C.2     1  UNL1        0.2505
     12 O          66.2129   96.4627   -1.5451 O.2     1  UNL1       -0.2699
     13 C          64.6870   94.9984    0.5827 C.3     1  UNL1        0.0940
     14 C          63.9241   94.2663    1.6466 C.3     1  UNL1        0.0259
     15 C          64.4462   95.7418   -3.3082 C.ar    1  UNL1        0.0729
     16 C          64.8481   94.6466   -4.2512 C.ar    1  UNL1        0.0109
     17 C          64.3462   94.6522   -5.6647 C.ar    1  UNL1        0.0577
     18 C          63.4424   95.7529   -6.1353 C.ar    1  UNL1        0.2216
     19 O          62.9405   95.7585   -7.5489 O.3     1  UNL1       -0.4919
     20 N          63.0405   96.8481   -5.1924 N.ar    1  UNL1       -0.2101
     21 C          63.5424   96.8425   -3.7788 C.ar    1  UNL1        0.1065
     22 H          63.1916   95.0744   -8.1379 H       1  UNL1        0.2937
     23 N          60.3443   89.8579    6.6201 N.am    1  UNL1       -0.1708
     24 C          59.6075   90.6111    5.5526 C.2     1  UNL1        0.3078
     25 O          58.1076   90.6322    5.5490 O.2     1  UNL1       -0.2516
     26 H          61.3287   89.8441    6.6225 H       1  UNL1        0.2545
     27 N          58.4422   88.2263    7.3055 N.pl3   1  UNL1       -0.1313
     28 C          59.5814   89.1258    7.6840 C.2     1  UNL1        0.3751
     29 N          59.9576   89.2931    9.1264 N.pl3   1  UNL1       -0.2906
     30 H          57.9415   87.7458    8.0038 H       1  UNL1        0.3060
     31 H          59.4569   88.8126    9.8247 H       1  UNL1        0.2545
     32 H          60.7053   89.8834    9.3748 H       1  UNL1        0.2545
     33 C          59.7738   94.1942    1.7931 C.3     1  UNL1        0.4183
     34 F          59.0940   95.2535    0.9772 F       1  UNL1       -0.1659
     35 F          60.4262   95.2559    2.6280 F       1  UNL1       -0.1659
     36 F          59.1214   93.1325    0.9581 F       1  UNL1       -0.1659
@<TRIPOS>BOND
     1    27    28    2
     2    28    29    1
     3    28    23    1
     4    23    24   am
     5    24    25    2
     6    24     1    1
     7     1     2   ar
     8     2     3   ar
     9     3     4   ar
    10     4     7    1
    11     7     8    1
    12     8     9    1
    13     9    10    1
    14    10    11   am
    15    11    12    2
    16    11    15    1
    17    15    16   ar
    18    16    17   ar
    19    17    18   ar
    20    18    19    1
    21    18    20   ar
    22    20    21   ar
    23    10    13    1
    24    13    14    1
    25     4     5   ar
    26     5    33    1
    27    33    34    1
    28    33    35    1
    29    33    36    1
    30     5     6   ar
    31     6     1   ar
    32    14     7    1
    33    21    15   ar
    34    27    30    1
    35    29    31    1
    36    29    32    1
    37    23    26    1
    38    19    22    1
@<TRIPOS>MOLECULE
*****
 36 38 0 0 0
SMALL
GASTEIGER

@<TRIPOS>ATOM
      1 C          59.3413   89.5498    7.1717 C.ar    1  UNL1        0.0696
      2 C          59.5952   90.1997    8.4995 C.ar    1  UNL1        0.0057
      3 C          60.3252   89.4500    9.5741 C.ar    1  UNL1       -0.0041
      4 C          60.8014   88.0503    9.3210 C.ar    1  UNL1       -0.0185
      5 C          60.5476   87.4004    7.9932 C.ar    1  UNL1        0.0677
      6 C          59.8175   88.1502    6.9185 C.ar    1  UNL1        0.0095
      7 C          61.5315   87.3005   10.3956 C.3     1  UNL1        0.0257
      8 C          61.3193   85.8244   10.5568 C.3     1  UNL1        0.0259
      9 C          62.0493   85.0747   11.6314 C.3     1  UNL1        0.0940
     10 N          62.9916   85.8010   12.5449 N.am    1  UNL1       -0.2760
     11 C          63.7216   85.0513   13.6196 C.2     1  UNL1        0.2505
     12 O          64.6639   85.7776   14.5331 O.2     1  UNL1       -0.2699
     13 C          63.2038   87.2771   12.3838 C.3     1  UNL1        0.0940
     14 C          62.4737   88.0269   11.3091 C.3     1  UNL1        0.0259
     15 C          63.5094   83.5752   13.7808 C.ar    1  UNL1        0.0729
     16 C          64.3068   82.6084   12.9563 C.ar    1  UNL1        0.0109
     17 C          64.0946   81.1323   13.1175 C.ar    1  UNL1        0.0577
     18 C          63.0851   80.6228   14.1030 C.ar    1  UNL1        0.2216
     19 O          62.8729   79.1466   14.2642 O.3     1  UNL1       -0.4919
     20 N          62.2877   81.5895   14.9275 N.ar    1  UNL1       -0.2101
     21 C          62.4999   83.0657   14.7663 C.ar    1  UNL1        0.1065
     22 H          63.3710   78.5428   13.7492 H       1  UNL1        0.2937
     23 N          59.3587   91.2396    5.1982 N.am    1  UNL1       -0.1708
     24 C          58.6113   90.2996    6.0970 C.2     1  UNL1        0.3078
     25 O          57.1339   90.1094    5.9211 O.2     1  UNL1       -0.2516
     26 H          60.3284   91.3644    5.3137 H       1  UNL1        0.2545
     27 N          59.3980   92.7517    3.0859 N.pl3   1  UNL1       -0.1313
     28 C          58.6286   91.9893    4.1236 C.2     1  UNL1        0.3751
     29 N          57.1291   91.9767    4.0866 N.pl3   1  UNL1       -0.2906
     30 H          58.9188   93.2438    2.3806 H       1  UNL1        0.3060
     31 H          56.6499   92.4688    3.3813 H       1  UNL1        0.2545
     32 H          56.6241   91.4763    4.7677 H       1  UNL1        0.2545
     33 C          61.0238   86.0007    7.7399 C.3     1  UNL1        0.4183
     34 F          61.4999   84.6010    7.4867 F       1  UNL1       -0.1659
     35 F          62.4391   86.4404    7.9709 F       1  UNL1       -0.1659
     36 F          59.6084   85.5610    7.5090 F       1  UNL1       -0.1659
@<TRIPOS>BOND
     1    27    28    2
     2    28    29    1
     3    28    23    1
     4    23    24   am
     5    24    25    2
     6    24     1    1
     7     1     2   ar
     8     2     3   ar
     9     3     4   ar
    10     4     7    1
    11     7     8    1
    12     8     9    1
    13     9    10    1
    14    10    11   am
    15    11    12    2
    16    11    15    1
    17    15    16   ar
    18    16    17   ar
    19    17    18   ar
    20    18    19    1
    21    18    20   ar
    22    20    21   ar
    23    10    13    1
    24    13    14    1
    25     4     5   ar
    26     5    33    1
    27    33    34    1
    28    33    35    1
    29    33    36    1
    30     5     6   ar
    31     6     1   ar
    32    14     7    1
    33    21    15   ar
    34    27    30    1
    35    29    31    1
    36    29    32    1
    37    23    26    1
    38    19    22    1
@<TRIPOS>MOLECULE
*****
 36 38 0 0 0
SMALL
GASTEIGER

@<TRIPOS>ATOM
      1 C          63.1643   86.2284   13.8066 C.ar    1  UNL1        0.0696
      2 C          64.2482   86.8050   14.6683 C.ar    1  UNL1        0.0057
      3 C          64.7430   88.1989   14.4188 C.ar    1  UNL1       -0.0041
      4 C          64.1537   89.0162   13.3076 C.ar    1  UNL1       -0.0185
      5 C          63.0698   88.4396   12.4459 C.ar    1  UNL1        0.0677
      6 C          62.5751   87.0457   12.6954 C.ar    1  UNL1        0.0095
      7 C          64.6484   90.4101   13.0580 C.3     1  UNL1        0.0257
      8 C          64.6299   90.9750   11.6687 C.3     1  UNL1        0.0259
      9 C          65.1246   92.3690   11.4191 C.3     1  UNL1        0.0940
     10 N          65.6379   93.1979   12.5590 N.am    1  UNL1       -0.2760
     11 C          66.1326   94.5919   12.3095 C.2     1  UNL1        0.2505
     12 O          66.6458   95.4208   13.4493 O.2     1  UNL1       -0.2699
     13 C          65.6564   92.6330   13.9484 C.3     1  UNL1        0.0940
     14 C          65.1617   91.2391   14.1979 C.3     1  UNL1        0.0259
     15 C          66.1141   95.1568   10.9201 C.ar    1  UNL1        0.0729
     16 C          67.0191   94.5887    9.8673 C.ar    1  UNL1        0.0109
     17 C          67.0006   95.1536    8.4779 C.ar    1  UNL1        0.0577
     18 C          66.0771   96.2866    8.1412 C.ar    1  UNL1        0.2216
     19 O          66.0586   96.8516    6.7517 O.3     1  UNL1       -0.4919
     20 N          65.1720   96.8547    9.1939 N.ar    1  UNL1       -0.2101
     21 C          65.1905   96.2898   10.5833 C.ar    1  UNL1        0.1065
     22 H          66.6240   96.4967    6.0941 H       1  UNL1        0.2937
     23 N          63.2106   83.6911   13.2500 N.am    1  UNL1       -0.1708
     24 C          62.6696   84.8345   14.0562 C.2     1  UNL1        0.3078
     25 O          61.6339   84.5839   15.1119 O.2     1  UNL1       -0.2516
     26 H          63.8903   83.8555   12.5571 H       1  UNL1        0.2545
     27 N          62.4582   81.8326   14.9023 N.pl3   1  UNL1       -0.1313
     28 C          62.7158   82.2972   13.4995 C.2     1  UNL1        0.3751
     29 N          62.4787   81.3678   12.3462 N.pl3   1  UNL1       -0.2906
     30 H          62.1335   80.9177   15.0660 H       1  UNL1        0.3060
     31 H          62.1541   80.4529   12.5099 H       1  UNL1        0.2545
     32 H          62.6478   81.6727   11.4255 H       1  UNL1        0.2545
     33 C          62.4805   89.2569   11.3347 C.3     1  UNL1        0.4183
     34 F          61.8912   90.0742   10.2235 F       1  UNL1       -0.1659
     35 F          63.1357   88.3594   10.3271 F       1  UNL1       -0.1659
     36 F          61.8253   90.1543   12.3422 F       1  UNL1       -0.1659
@<TRIPOS>BOND
     1    27    28    2
     2    28    29    1
     3    28    23    1
     4    23    24   am
     5    24    25    2
     6    24     1    1
     7     1     2   ar
     8     2     3   ar
     9     3     4   ar
    10     4     7    1
    11     7     8    1
    12     8     9    1
    13     9    10    1
    14    10    11   am
    15    11    12    2
    16    11    15    1
    17    15    16   ar
    18    16    17   ar
    19    17    18   ar
    20    18    19    1
    21    18    20   ar
    22    20    21   ar
    23    10    13    1
    24    13    14    1
    25     4     5   ar
    26     5    33    1
    27    33    34    1
    28    33    35    1
    29    33    36    1
    30     5     6   ar
    31     6     1   ar
    32    14     7    1
    33    21    15   ar
    34    27    30    1
    35    29    31    1
    36    29    32    1
    37    23    26    1
    38    19    22    1
@<TRIPOS>MOLECULE
*****
 36 38 0 0 0
SMALL
GASTEIGER

@<TRIPOS>ATOM
      1 C          62.9861   81.4924   11.6793 C.ar    1  UNL1        0.0696
      2 C          63.0538   82.3564   10.4551 C.ar    1  UNL1        0.0057
      3 C          63.0784   83.8500   10.5916 C.ar    1  UNL1       -0.0041
      4 C          63.0353   84.4795   11.9524 C.ar    1  UNL1       -0.0185
      5 C          62.9676   83.6155   13.1767 C.ar    1  UNL1        0.0677
      6 C          62.9430   82.1219   13.0401 C.ar    1  UNL1        0.0095
      7 C          63.0599   85.9731   12.0890 C.3     1  UNL1        0.0257
      8 C          63.9164   86.6162   13.1391 C.3     1  UNL1        0.0259
      9 C          63.9410   88.1097   13.2757 C.3     1  UNL1        0.0940
     10 N          63.1091   88.9602   12.3621 N.am    1  UNL1       -0.2760
     11 C          63.1337   90.4538   12.4986 C.2     1  UNL1        0.2505
     12 O          62.3019   91.3042   11.5850 O.2     1  UNL1       -0.2699
     13 C          62.2527   88.3171   11.3119 C.3     1  UNL1        0.0940
     14 C          62.2281   86.8235   11.1754 C.3     1  UNL1        0.0259
     15 C          63.9902   91.0969   13.5488 C.ar    1  UNL1        0.0729
     16 C          65.2253   91.8498   13.1516 C.ar    1  UNL1        0.0109
     17 C          66.0818   92.4929   14.2018 C.ar    1  UNL1        0.0577
     18 C          65.7031   92.3832   15.6491 C.ar    1  UNL1        0.2216
     19 O          66.5597   93.0263   16.6992 O.3     1  UNL1       -0.4919
     20 N          64.4681   91.6303   16.0462 N.ar    1  UNL1       -0.2101
     21 C          63.6115   90.9872   14.9960 C.ar    1  UNL1        0.1065
     22 H          67.3312   93.4966   16.4511 H       1  UNL1        0.2937
     23 N          63.2571   79.3619   10.2173 N.am    1  UNL1       -0.1708
     24 C          62.9615   79.9988   11.5428 C.2     1  UNL1        0.3078
     25 O          62.6413   79.1421   12.7317 O.2     1  UNL1       -0.2516
     26 H          63.4673   79.9241    9.4370 H       1  UNL1        0.2545
     27 N          64.3213   77.1662    9.3248 N.pl3   1  UNL1       -0.1313
     28 C          63.2325   77.8683   10.0808 C.2     1  UNL1        0.3751
     29 N          62.1191   77.0768   10.7003 N.pl3   1  UNL1       -0.2906
     30 H          64.3052   76.1860    9.2352 H       1  UNL1        0.3060
     31 H          62.1029   76.0965   10.6107 H       1  UNL1        0.2545
     32 H          61.4044   77.5376   11.1965 H       1  UNL1        0.2545
     33 C          62.9245   84.2450   14.5376 C.3     1  UNL1        0.4183
     34 F          62.8815   84.8745   15.8984 F       1  UNL1       -0.1659
     35 F          61.4491   84.4693   14.3871 F       1  UNL1       -0.1659
     36 F          64.4000   84.0206   14.6880 F       1  UNL1       -0.1659
@<TRIPOS>BOND
     1    27    28    2
     2    28    29    1
     3    28    23    1
     4    23    24   am
     5    24    25    2
     6    24     1    1
     7     1     2   ar
     8     2     3   ar
     9     3     4   ar
    10     4     7    1
    11     7     8    1
    12     8     9    1
    13     9    10    1
    14    10    11   am
    15    11    12    2
    16    11    15    1
    17    15    16   ar
    18    16    17   ar
    19    17    18   ar
    20    18    19    1
    21    18    20   ar
    22    20    21   ar
    23    10    13    1
    24    13    14    1
    25     4     5   ar
    26     5    33    1
    27    33    34    1
    28    33    35    1
    29    33    36    1
    30     5     6   ar
    31     6     1   ar
    32    14     7    1
    33    21    15   ar
    34    27    30    1
    35    29    31    1
    36    29    32    1
    37    23    26    1
    38    19    22    1
@<TRIPOS>MOLECULE
*****
 36 38 0 0 0
SMALL
GASTEIGER

@<TRIPOS>ATOM
      1 C          62.8880   81.5101   11.6674 C.ar    1  UNL1        0.0696
      2 C          62.7611   82.1473   13.0193 C.ar    1  UNL1        0.0057
      3 C          62.7977   83.6411   13.1508 C.ar    1  UNL1       -0.0041
      4 C          62.9611   84.4977   11.9303 C.ar    1  UNL1       -0.0185
      5 C          63.0880   83.8604   10.5784 C.ar    1  UNL1        0.0677
      6 C          63.0515   82.3666   10.4469 C.ar    1  UNL1        0.0095
      7 C          62.9976   85.9914   12.0618 C.3     1  UNL1        0.0257
      8 C          63.8567   86.6311   13.1119 C.3     1  UNL1        0.0259
      9 C          63.8932   88.1249   13.2434 C.3     1  UNL1        0.0940
     10 N          63.0707   88.9790   12.3247 N.am    1  UNL1       -0.2760
     11 C          63.1073   90.4728   12.4562 C.2     1  UNL1        0.2505
     12 O          62.2848   91.3269   11.5375 O.2     1  UNL1       -0.2699
     13 C          62.2117   88.3393   11.2746 C.3     1  UNL1        0.0940
     14 C          62.1752   86.8455   11.1431 C.3     1  UNL1        0.0259
     15 C          63.9663   91.1125   13.5063 C.ar    1  UNL1        0.0729
     16 C          65.1963   91.8732   13.1081 C.ar    1  UNL1        0.0109
     17 C          66.0553   92.5129   14.1582 C.ar    1  UNL1        0.0577
     18 C          65.6844   92.3919   15.6066 C.ar    1  UNL1        0.2216
     19 O          66.5435   93.0316   16.6568 O.3     1  UNL1       -0.4919
     20 N          64.4545   91.6312   16.0048 N.ar    1  UNL1       -0.2101
     21 C          63.5954   90.9915   14.9547 C.ar    1  UNL1        0.1065
     22 H          67.3118   93.5068   16.4080 H       1  UNL1        0.2937
     23 N          63.2299   79.3682   10.2372 N.am    1  UNL1       -0.1708
     24 C          62.8515   80.0163   11.5359 C.2     1  UNL1        0.3078
     25 O          62.4365   79.1706   12.7031 O.2     1  UNL1       -0.2516
     26 H          63.5023   79.9233    9.4710 H       1  UNL1        0.2545
     27 N          64.2638   77.1632    9.3322 N.pl3   1  UNL1       -0.1313
     28 C          63.1934   77.8745   10.1057 C.2     1  UNL1        0.3751
     29 N          62.0863   77.0919   10.7477 N.pl3   1  UNL1       -0.2906
     30 H          64.2398   76.1828    9.2460 H       1  UNL1        0.3060
     31 H          62.0623   76.1115   10.6615 H       1  UNL1        0.2545
     32 H          61.3838   77.5587   11.2554 H       1  UNL1        0.2545
     33 C          63.2514   84.7170    9.3578 C.3     1  UNL1        0.4183
     34 F          63.4148   85.5735    8.1373 F       1  UNL1       -0.1659
     35 F          64.7282   84.4547    9.3714 F       1  UNL1       -0.1659
     36 F          61.7746   84.9792    9.3442 F       1  UNL1       -0.1659
@<TRIPOS>BOND
     1    27    28    2
     2    28    29    1
     3    28    23    1
     4    23    24   am
     5    24    25    2
     6    24     1    1
     7     1     2   ar
     8     2     3   ar
     9     3     4   ar
    10     4     7    1
    11     7     8    1
    12     8     9    1
    13     9    10    1
    14    10    11   am
    15    11    12    2
    16    11    15    1
    17    15    16   ar
    18    16    17   ar
    19    17    18   ar
    20    18    19    1
    21    18    20   ar
    22    20    21   ar
    23    10    13    1
    24    13    14    1
    25     4     5   ar
    26     5    33    1
    27    33    34    1
    28    33    35    1
    29    33    36    1
    30     5     6   ar
    31     6     1   ar
    32    14     7    1
    33    21    15   ar
    34    27    30    1
    35    29    31    1
    36    29    32    1
    37    23    26    1
    38    19    22    1
