@<TRIPOS>MOLECULE
*****
 39 44 0 0 0
SMALL
GASTEIGER

@<TRIPOS>ATOM
      1 N          63.2815   90.5867   13.4350 N.pl3   1  UNL1       -0.2816
      2 H          62.4525   91.1147   13.4912 H       1  UNL1        0.1551
      3 C          64.6066   91.2410   13.6927 C.ar    1  UNL1        0.2020
      4 N          65.5607   91.4744   12.5592 N.ar    1  UNL1       -0.1802
      5 C          66.8858   92.1288   12.8168 C.ar    1  UNL1        0.2299
      6 C          67.2564   92.5496   14.2080 C.ar    1  UNL1        0.0887
      7 C          68.4824   93.2121   14.7631 C.ar    1  UNL1        0.0283
      8 C          68.2858   93.3881   16.2397 C.ar    1  UNL1        0.1008
      9 N          66.9384   92.8343   16.5972 N.ar    1  UNL1       -0.2267
     10 C          66.3022   92.3161   15.3416 C.ar    1  UNL1        0.1471
     11 N          64.9772   91.6618   15.0839 N.ar    1  UNL1       -0.3117
     12 H          64.3509   91.5086   15.8278 H       1  UNL1        0.1700
     13 O          67.8400   92.3622   11.6832 O.3     1  UNL1       -0.4637
     14 C          67.5297   93.3971   10.6427 C.3     1  UNL1        0.1724
     15 C          68.0712   93.2480    9.2518 C.3     1  UNL1        0.0757
     16 C          67.7610   94.2829    8.2113 C.3     1  UNL1        0.1457
     17 O          66.9092   95.4668    8.5616 O.3     1  UNL1       -0.3583
     18 C          66.3677   95.6159    9.9525 C.3     1  UNL1        0.0964
     19 C          65.6293   96.1942   11.1231 C.3     1  UNL1        0.0298
     20 C          65.8010   96.8516    9.3185 C.3     1  UNL1        0.0298
     21 C          66.6779   94.5810   10.9930 C.3     1  UNL1        0.0708
     22 C          62.4947   88.6775   11.8584 C.ar    1  UNL1        0.1533
     23 C          62.4329   87.2185   11.5152 C.ar    1  UNL1        0.0527
     24 C          63.0960   86.2099   12.4056 C.ar    1  UNL1        0.0510
     25 C          63.8210   86.6601   13.6392 C.ar    1  UNL1        0.0160
     26 C          63.8829   88.1190   13.9823 C.ar    1  UNL1        0.0190
     27 C          63.2197   89.1278   13.0919 C.ar    1  UNL1        0.0849
     28 N          63.0342   84.7510   12.0624 N.pl3   1  UNL1       -0.3046
     29 C          62.7231   83.7424   13.1283 C.3     1  UNL1        0.1081
     30 C          62.6613   82.2835   12.7851 C.3     1  UNL1        0.0939
     31 N          62.9105   81.8332   11.3762 N.3     1  UNL1       -0.2668
     32 C          63.2215   82.8418   10.3104 C.3     1  UNL1        0.0939
     33 C          63.2834   84.3007   10.6535 C.3     1  UNL1        0.1081
     34 C          62.8487   80.3742   11.0329 C.3     1  UNL1        0.1173
     35 C          62.6900   79.1059   11.8178 C.3     1  UNL1        0.1606
     36 O          62.7613   78.3111   10.5477 O.3     1  UNL1       -0.3507
     37 C          62.9199   79.5794    9.7629 C.3     1  UNL1        0.1606
     38 C          62.6601   90.5393   10.0539 C.3     1  UNL1        0.2525
     39 O          61.8315   89.6862   10.9680 O.3     1  UNL1       -0.4701
@<TRIPOS>BOND
     1    38    39    1
     2    39    22    1
     3    22    23   ar
     4    23    24   ar
     5    24    28    1
     6    28    29    1
     7    29    30    1
     8    30    31    1
     9    31    34    1
    10    34    35    1
    11    35    36    1
    12    36    37    1
    13    31    32    1
    14    32    33    1
    15    24    25   ar
    16    25    26   ar
    17    26    27   ar
    18    27     1    1
    19     1     3    1
    20     3     4   ar
    21     4     5   ar
    22     5    13    1
    23    14    13    1
    24    14    15    1
    25    15    16    1
    26    16    17    1
    27    17    18    1
    28    18    19    1
    29    18    20    1
    30    18    21    1
    31     5     6   ar
    32     6     7   ar
    33     7     8   ar
    34     8     9   ar
    35     9    10   ar
    36    10    11   ar
    37    27    22   ar
    38    11     3   ar
    39    33    28    1
    40    21    14    1
    41    10     6    1
    42    37    34    1
    43     1     2    1
    44    11    12    1
@<TRIPOS>MOLECULE
*****
 39 44 0 0 0
SMALL
GASTEIGER

@<TRIPOS>ATOM
      1 N          60.1542   87.0775   11.0809 N.pl3   1  UNL1       -0.2816
      2 H          59.4335   87.1251   11.7500 H       1  UNL1        0.1551
      3 C          61.3247   86.1660   11.3029 C.ar    1  UNL1        0.2020
      4 N          62.0762   86.2127   12.6001 N.ar    1  UNL1       -0.1802
      5 C          63.2468   85.3012   12.8221 C.ar    1  UNL1        0.2299
      6 C          63.6656   84.3431   11.7467 C.ar    1  UNL1        0.0887
      7 C          64.7706   83.3309   11.6790 C.ar    1  UNL1        0.0283
      8 C          64.7019   82.6587   10.3398 C.ar    1  UNL1        0.1008
      9 N          63.5545   83.2554    9.5799 N.ar    1  UNL1       -0.2267
     10 C          62.9140   84.2964   10.4494 C.ar    1  UNL1        0.1471
     11 N          61.7436   85.2078   10.2275 N.ar    1  UNL1       -0.3117
     12 H          61.2503   85.1772    9.3760 H       1  UNL1        0.1700
     13 O          63.9983   85.3480   14.1194 O.3     1  UNL1       -0.4637
     14 C          63.7380   86.4551   15.0975 C.3     1  UNL1        0.1724
     15 C          63.1915   86.1403   16.4584 C.3     1  UNL1        0.0757
     16 C          62.9312   87.2473   17.4366 C.3     1  UNL1        0.1457
     17 O          63.2174   88.6691   17.0537 O.3     1  UNL1       -0.3583
     18 C          63.7639   88.9839   15.6927 C.3     1  UNL1        0.0964
     19 C          64.2825   89.7790   14.5314 C.3     1  UNL1        0.0298
     20 C          63.6837   90.3671   16.2675 C.3     1  UNL1        0.0298
     21 C          64.0242   87.8769   14.7146 C.3     1  UNL1        0.0708
     22 C          60.6335   89.3111    9.8436 C.ar    1  UNL1        0.1533
     23 C          60.5611   90.1500    8.6021 C.ar    1  UNL1        0.0527
     24 C          59.9369   89.5941    7.3567 C.ar    1  UNL1        0.0510
     25 C          59.3850   88.1992    7.3525 C.ar    1  UNL1        0.0160
     26 C          59.4575   87.3604    8.5940 C.ar    1  UNL1        0.0190
     27 C          60.0817   87.9163    9.8395 C.ar    1  UNL1        0.0849
     28 N          59.8644   90.4329    6.1153 N.pl3   1  UNL1       -0.3046
     29 C          61.1102   90.7210    5.3310 C.3     1  UNL1        0.1081
     30 C          61.0377   91.5598    4.0896 C.3     1  UNL1        0.0939
     31 N          59.7195   92.1105    3.6324 N.3     1  UNL1       -0.2668
     32 C          58.4737   91.8224    4.4167 C.3     1  UNL1        0.0939
     33 C          58.5462   90.9836    5.6581 C.3     1  UNL1        0.1081
     34 C          59.6469   92.9494    2.3910 C.3     1  UNL1        0.1173
     35 C          59.0380   92.7800    1.0307 C.3     1  UNL1        0.1606
     36 O          59.5442   94.1355    0.6353 O.3     1  UNL1       -0.3507
     37 C          60.1532   94.3048    1.9956 C.3     1  UNL1        0.1606
     38 C          62.7338   89.7253   11.3158 C.3     1  UNL1        0.2525
     39 O          61.2578   89.8671   11.0890 O.3     1  UNL1       -0.4701
@<TRIPOS>BOND
     1    38    39    1
     2    39    22    1
     3    22    23   ar
     4    23    24   ar
     5    24    28    1
     6    28    29    1
     7    29    30    1
     8    30    31    1
     9    31    34    1
    10    34    35    1
    11    35    36    1
    12    36    37    1
    13    31    32    1
    14    32    33    1
    15    24    25   ar
    16    25    26   ar
    17    26    27   ar
    18    27     1    1
    19     1     3    1
    20     3     4   ar
    21     4     5   ar
    22     5    13    1
    23    14    13    1
    24    14    15    1
    25    15    16    1
    26    16    17    1
    27    17    18    1
    28    18    19    1
    29    18    20    1
    30    18    21    1
    31     5     6   ar
    32     6     7   ar
    33     7     8   ar
    34     8     9   ar
    35     9    10   ar
    36    10    11   ar
    37    27    22   ar
    38    11     3   ar
    39    33    28    1
    40    21    14    1
    41    10     6    1
    42    37    34    1
    43     1     2    1
    44    11    12    1
@<TRIPOS>MOLECULE
*****
 39 44 0 0 0
SMALL
GASTEIGER

@<TRIPOS>ATOM
      1 N          60.2022   87.0755   10.3888 N.pl3   1  UNL1       -0.2816
      2 H          59.5367   86.3632   10.5269 H       1  UNL1        0.1551
      3 C          61.3136   87.2657   11.3781 C.ar    1  UNL1        0.2020
      4 N          62.0721   86.0779   11.8916 N.ar    1  UNL1       -0.1802
      5 C          63.1835   86.2681   12.8809 C.ar    1  UNL1        0.2299
      6 C          63.5363   87.6462   13.3566 C.ar    1  UNL1        0.0887
      7 C          64.5747   88.1403   14.3197 C.ar    1  UNL1        0.0283
      8 C          64.4579   89.6335   14.4015 C.ar    1  UNL1        0.1008
      9 N          63.3474   90.0623   13.4889 N.ar    1  UNL1       -0.2267
     10 C          62.7778   88.8340   12.8431 C.ar    1  UNL1        0.1471
     11 N          61.6664   88.6438   11.8539 N.ar    1  UNL1       -0.3117
     12 H          61.1686   89.4234   11.5168 H       1  UNL1        0.1700
     13 O          63.9420   85.0802   13.3944 O.3     1  UNL1       -0.4637
     14 C          63.6778   83.7181   12.8244 C.3     1  UNL1        0.1724
     15 C          64.2142   83.3543   11.4716 C.3     1  UNL1        0.0757
     16 C          63.9500   81.9923   10.9016 C.3     1  UNL1        0.1457
     17 O          63.1496   80.9940   11.6843 O.3     1  UNL1       -0.3583
     18 C          62.6133   81.3578   13.0371 C.3     1  UNL1        0.0964
     19 C          61.8991   81.2335   14.3503 C.3     1  UNL1        0.0298
     20 C          62.1011   79.9525   12.9232 C.3     1  UNL1        0.0298
     21 C          62.8774   82.7198   13.6071 C.3     1  UNL1        0.0708
     22 C          59.8720   87.3803    7.8299 C.ar    1  UNL1        0.1533
     23 C          59.7745   88.2754    6.6301 C.ar    1  UNL1        0.0527
     24 C          59.9098   89.7607    6.7896 C.ar    1  UNL1        0.0510
     25 C          60.1426   90.3511    8.1488 C.ar    1  UNL1        0.0160
     26 C          60.2400   89.4560    9.3485 C.ar    1  UNL1        0.0190
     27 C          60.1047   87.9706    9.1891 C.ar    1  UNL1        0.0849
     28 N          59.8124   90.6558    5.5899 N.pl3   1  UNL1       -0.3046
     29 C          61.0514   91.0339    4.8336 C.3     1  UNL1        0.1081
     30 C          60.9539   91.9290    3.6339 C.3     1  UNL1        0.0939
     31 N          59.6175   92.4460    3.1905 N.3     1  UNL1       -0.2668
     32 C          58.3785   92.0679    3.9467 C.3     1  UNL1        0.0939
     33 C          58.4759   91.1728    5.1464 C.3     1  UNL1        0.1081
     34 C          59.5199   93.3411    1.9907 C.3     1  UNL1        0.1173
     35 C          60.0921   94.6754    1.6137 C.3     1  UNL1        0.1606
     36 O          59.3821   94.6070    0.2942 O.3     1  UNL1       -0.3507
     37 C          58.8099   93.2727    0.6712 C.3     1  UNL1        0.1606
     38 C          60.8533   85.1014    7.0595 C.3     1  UNL1        0.2525
     39 O          59.7366   85.8950    7.6704 O.3     1  UNL1       -0.4701
@<TRIPOS>BOND
     1    38    39    1
     2    39    22    1
     3    22    23   ar
     4    23    24   ar
     5    24    28    1
     6    28    29    1
     7    29    30    1
     8    30    31    1
     9    31    34    1
    10    34    35    1
    11    35    36    1
    12    36    37    1
    13    31    32    1
    14    32    33    1
    15    24    25   ar
    16    25    26   ar
    17    26    27   ar
    18    27     1    1
    19     1     3    1
    20     3     4   ar
    21     4     5   ar
    22     5    13    1
    23    14    13    1
    24    14    15    1
    25    15    16    1
    26    16    17    1
    27    17    18    1
    28    18    19    1
    29    18    20    1
    30    18    21    1
    31     5     6   ar
    32     6     7   ar
    33     7     8   ar
    34     8     9   ar
    35     9    10   ar
    36    10    11   ar
    37    27    22   ar
    38    11     3   ar
    39    33    28    1
    40    21    14    1
    41    10     6    1
    42    37    34    1
    43     1     2    1
    44    11    12    1
@<TRIPOS>MOLECULE
*****
 39 44 0 0 0
SMALL
GASTEIGER

@<TRIPOS>ATOM
      1 N          63.8347   90.9985   15.5951 N.pl3   1  UNL1       -0.2816
      2 H          63.0770   91.3936   16.0841 H       1  UNL1        0.1551
      3 C          65.0983   91.7847   15.4076 C.ar    1  UNL1        0.2020
      4 N          65.1484   92.8949   14.4002 N.ar    1  UNL1       -0.1802
      5 C          66.4120   93.6811   14.2127 C.ar    1  UNL1        0.2299
      6 C          67.6256   93.3570   15.0325 C.ar    1  UNL1        0.0887
      7 C          69.0012   93.9539   15.0684 C.ar    1  UNL1        0.0283
      8 C          69.8014   93.2125   16.0980 C.ar    1  UNL1        0.1008
      9 N          68.9203   92.1574   16.6985 N.ar    1  UNL1       -0.2267
     10 C          67.5755   92.2468   16.0399 C.ar    1  UNL1        0.1471
     11 N          66.3119   91.4606   16.2275 N.ar    1  UNL1       -0.3117
     12 H          66.2790   90.7319   16.8886 H       1  UNL1        0.1700
     13 O          66.4620   94.7914   13.2052 O.3     1  UNL1       -0.4637
     14 C          66.7067   94.4807   11.7583 C.3     1  UNL1        0.1724
     15 C          66.9417   93.0641   11.3248 C.3     1  UNL1        0.0757
     16 C          67.1863   92.7534    9.8779 C.3     1  UNL1        0.1457
     17 O          67.1960   93.8593    8.8645 O.3     1  UNL1       -0.3583
     18 C          66.9610   95.2759    9.2980 C.3     1  UNL1        0.0964
     19 C          66.7905   96.7641    9.2196 C.3     1  UNL1        0.0298
     20 C          67.1465   95.4821    7.8239 C.3     1  UNL1        0.0298
     21 C          66.7164   95.5866   10.7449 C.3     1  UNL1        0.0708
     22 C          63.5827   89.4051   13.5586 C.ar    1  UNL1        0.1533
     23 C          63.4735   88.0168   13.0010 C.ar    1  UNL1        0.0527
     24 C          63.5070   86.8338   13.9224 C.ar    1  UNL1        0.0510
     25 C          63.6497   87.0388   15.4015 C.ar    1  UNL1        0.0160
     26 C          63.7589   88.4271   15.9591 C.ar    1  UNL1        0.0190
     27 C          63.7254   89.6103   15.0376 C.ar    1  UNL1        0.0849
     28 N          63.3977   85.4455   13.3649 N.pl3   1  UNL1       -0.3046
     29 C          62.7450   85.2214   12.0331 C.3     1  UNL1        0.1081
     30 C          62.6358   83.8331   11.4756 C.3     1  UNL1        0.0939
     31 N          63.1793   82.6691   12.2498 N.3     1  UNL1       -0.2668
     32 C          63.8321   82.8932   13.5816 C.3     1  UNL1        0.0939
     33 C          63.9413   84.2815   14.1392 C.3     1  UNL1        0.1081
     34 C          63.0701   81.2807   11.6924 C.3     1  UNL1        0.1173
     35 C          63.2366   80.6673   10.3338 C.3     1  UNL1        0.1606
     36 O          62.9158   79.3175   10.9039 O.3     1  UNL1       -0.3507
     37 C          62.7493   79.9309   12.2625 C.3     1  UNL1        0.1606
     38 C          62.6208   90.5953   11.4590 C.3     1  UNL1        0.2525
     39 O          63.5493   90.5882   12.6371 O.3     1  UNL1       -0.4701
@<TRIPOS>BOND
     1    38    39    1
     2    39    22    1
     3    22    23   ar
     4    23    24   ar
     5    24    28    1
     6    28    29    1
     7    29    30    1
     8    30    31    1
     9    31    34    1
    10    34    35    1
    11    35    36    1
    12    36    37    1
    13    31    32    1
    14    32    33    1
    15    24    25   ar
    16    25    26   ar
    17    26    27   ar
    18    27     1    1
    19     1     3    1
    20     3     4   ar
    21     4     5   ar
    22     5    13    1
    23    14    13    1
    24    14    15    1
    25    15    16    1
    26    16    17    1
    27    17    18    1
    28    18    19    1
    29    18    20    1
    30    18    21    1
    31     5     6   ar
    32     6     7   ar
    33     7     8   ar
    34     8     9   ar
    35     9    10   ar
    36    10    11   ar
    37    27    22   ar
    38    11     3   ar
    39    33    28    1
    40    21    14    1
    41    10     6    1
    42    37    34    1
    43     1     2    1
    44    11    12    1
@<TRIPOS>MOLECULE
*****
 39 44 0 0 0
SMALL
GASTEIGER

@<TRIPOS>ATOM
      1 N          60.1896   86.8657   10.2603 N.pl3   1  UNL1       -0.2816
      2 H          59.5548   86.1169   10.3341 H       1  UNL1        0.1551
      3 C          61.2357   87.0693   11.3160 C.ar    1  UNL1        0.2020
      4 N          61.4863   88.4408   11.8689 N.ar    1  UNL1       -0.1802
      5 C          62.5324   88.6443   12.9246 C.ar    1  UNL1        0.2299
      6 C          63.3277   87.4761   13.4273 C.ar    1  UNL1        0.0887
      7 C          64.4162   87.3703   14.4539 C.ar    1  UNL1        0.0283
      8 C          64.8382   85.9332   14.5355 C.ar    1  UNL1        0.1008
      9 N          64.0106   85.1509   13.5593 N.ar    1  UNL1       -0.2267
     10 C          63.0770   86.1045   12.8744 C.ar    1  UNL1        0.1471
     11 N          62.0310   85.9010   11.8187 N.ar    1  UNL1       -0.3117
     12 H          61.8664   85.0008   11.4558 H       1  UNL1        0.1700
     13 O          62.7830   90.0161   13.4775 O.3     1  UNL1       -0.4637
     14 C          63.9607   90.8132   13.0006 C.3     1  UNL1        0.1724
     15 C          63.9620   91.3954   11.6181 C.3     1  UNL1        0.0757
     16 C          65.1397   92.1925   11.1411 C.3     1  UNL1        0.1457
     17 O          66.3161   92.4076   12.0466 O.3     1  UNL1       -0.3583
     18 C          66.3148   91.8255   13.4290 C.3     1  UNL1        0.0964
     19 C          66.7785   91.4784   14.8127 C.3     1  UNL1        0.0298
     20 C          67.6535   92.5021   13.4326 C.3     1  UNL1        0.0298
     21 C          65.1371   91.0283   13.9060 C.3     1  UNL1        0.0708
     22 C          59.8706   87.2646    7.7129 C.ar    1  UNL1        0.1533
     23 C          59.7918   88.2022    6.5446 C.ar    1  UNL1        0.0527
     24 C          59.9532   89.6784    6.7555 C.ar    1  UNL1        0.0510
     25 C          60.1935   90.2172    8.1347 C.ar    1  UNL1        0.0160
     26 C          60.2723   89.2796    9.3029 C.ar    1  UNL1        0.0190
     27 C          60.1108   87.8033    9.0921 C.ar    1  UNL1        0.0849
     28 N          59.8745   90.6159    5.5873 N.pl3   1  UNL1       -0.3046
     29 C          58.5548   91.2060    5.1868 C.3     1  UNL1        0.1081
     30 C          58.4760   92.1436    4.0186 C.3     1  UNL1        0.0939
     31 N          59.7169   92.4911    3.2508 N.3     1  UNL1       -0.2668
     32 C          61.0365   91.9010    3.6513 C.3     1  UNL1        0.0939
     33 C          61.1153   90.9634    4.8195 C.3     1  UNL1        0.1081
     34 C          59.6382   93.4286    2.0825 C.3     1  UNL1        0.1173
     35 C          60.1190   94.8225    1.8071 C.3     1  UNL1        0.1606
     36 O          59.5271   94.7546    0.4305 O.3     1  UNL1       -0.3507
     37 C          59.0463   93.3608    0.7060 C.3     1  UNL1        0.1606
     38 C          60.8322   84.9876    6.9125 C.3     1  UNL1        0.2525
     39 O          59.7091   85.7883    7.5020 O.3     1  UNL1       -0.4701
@<TRIPOS>BOND
     1    38    39    1
     2    39    22    1
     3    22    23   ar
     4    23    24   ar
     5    24    28    1
     6    28    29    1
     7    29    30    1
     8    30    31    1
     9    31    34    1
    10    34    35    1
    11    35    36    1
    12    36    37    1
    13    31    32    1
    14    32    33    1
    15    24    25   ar
    16    25    26   ar
    17    26    27   ar
    18    27     1    1
    19     1     3    1
    20     3     4   ar
    21     4     5   ar
    22     5    13    1
    23    14    13    1
    24    14    15    1
    25    15    16    1
    26    16    17    1
    27    17    18    1
    28    18    19    1
    29    18    20    1
    30    18    21    1
    31     5     6   ar
    32     6     7   ar
    33     7     8   ar
    34     8     9   ar
    35     9    10   ar
    36    10    11   ar
    37    27    22   ar
    38    11     3   ar
    39    33    28    1
    40    21    14    1
    41    10     6    1
    42    37    34    1
    43     1     2    1
    44    11    12    1
@<TRIPOS>MOLECULE
*****
 39 44 0 0 0
SMALL
GASTEIGER

@<TRIPOS>ATOM
      1 N          62.9750   91.5497   10.9276 N.pl3   1  UNL1       -0.2816
      2 H          62.1362   92.0478   10.7953 H       1  UNL1        0.1551
      3 C          64.2941   92.2439   10.7596 C.ar    1  UNL1        0.2020
      4 N          65.4354   91.9178   11.6765 N.ar    1  UNL1       -0.1802
      5 C          66.7545   92.6120   11.5085 C.ar    1  UNL1        0.2299
      6 C          66.9321   93.6323   10.4234 C.ar    1  UNL1        0.0887
      7 C          68.1066   94.4729   10.0187 C.ar    1  UNL1        0.0283
      8 C          67.6911   95.3186    8.8515 C.ar    1  UNL1        0.1008
      9 N          66.2598   95.0006    8.5349 N.ar    1  UNL1       -0.2267
     10 C          65.7907   93.9584    9.5064 C.ar    1  UNL1        0.1471
     11 N          64.4717   93.2642    9.6745 N.ar    1  UNL1       -0.3117
     12 H          63.7226   93.4782    9.0726 H       1  UNL1        0.1700
     13 O          67.8959   92.2859   12.4255 O.3     1  UNL1       -0.4637
     14 C          67.7139   92.3780   13.9115 C.3     1  UNL1        0.1724
     15 C          68.9002   92.6115   14.7993 C.3     1  UNL1        0.0757
     16 C          68.7184   92.7036   16.2854 C.3     1  UNL1        0.1457
     17 O          67.3501   92.5624   16.8837 O.3     1  UNL1       -0.3583
     18 C          66.1638   92.3289   15.9959 C.3     1  UNL1        0.0964
     19 C          64.7429   92.0999   15.5733 C.3     1  UNL1        0.0298
     20 C          65.4884   92.3416   17.3352 C.3     1  UNL1        0.0298
     21 C          66.3457   92.2368   14.5098 C.3     1  UNL1        0.0708
     22 C          62.2049   89.1204   10.4224 C.ar    1  UNL1        0.1533
     23 C          62.1640   87.6671   10.7920 C.ar    1  UNL1        0.0527
     24 C          62.8521   87.1902   12.0365 C.ar    1  UNL1        0.0510
     25 C          63.5812   88.1663   12.9115 C.ar    1  UNL1        0.0160
     26 C          63.6222   89.6195   12.5419 C.ar    1  UNL1        0.0190
     27 C          62.9340   90.0965   11.2973 C.ar    1  UNL1        0.0849
     28 N          62.8111   85.7370   12.4062 N.pl3   1  UNL1       -0.3046
     29 C          63.0858   85.3145   13.8190 C.3     1  UNL1        0.1081
     30 C          63.0449   83.8613   14.1886 C.3     1  UNL1        0.0939
     31 N          62.7292   82.8307   13.1455 N.3     1  UNL1       -0.2668
     32 C          62.4546   83.2532   11.7327 C.3     1  UNL1        0.0939
     33 C          62.4955   84.7064   11.3630 C.3     1  UNL1        0.1081
     34 C          62.6883   81.3775   13.5150 C.3     1  UNL1        0.1173
     35 C          61.5992   80.3726   13.7476 C.3     1  UNL1        0.1606
     36 O          62.6301   79.3224   14.0376 O.3     1  UNL1       -0.3507
     37 C          63.7192   80.3273   13.8051 C.3     1  UNL1        0.1606
     38 C          60.2187   88.9768    8.7538 C.3     1  UNL1        0.2525
     39 O          61.5168   89.5974    9.1778 O.3     1  UNL1       -0.4701
@<TRIPOS>BOND
     1    38    39    1
     2    39    22    1
     3    22    23   ar
     4    23    24   ar
     5    24    28    1
     6    28    29    1
     7    29    30    1
     8    30    31    1
     9    31    34    1
    10    34    35    1
    11    35    36    1
    12    36    37    1
    13    31    32    1
    14    32    33    1
    15    24    25   ar
    16    25    26   ar
    17    26    27   ar
    18    27     1    1
    19     1     3    1
    20     3     4   ar
    21     4     5   ar
    22     5    13    1
    23    14    13    1
    24    14    15    1
    25    15    16    1
    26    16    17    1
    27    17    18    1
    28    18    19    1
    29    18    20    1
    30    18    21    1
    31     5     6   ar
    32     6     7   ar
    33     7     8   ar
    34     8     9   ar
    35     9    10   ar
    36    10    11   ar
    37    27    22   ar
    38    11     3   ar
    39    33    28    1
    40    21    14    1
    41    10     6    1
    42    37    34    1
    43     1     2    1
    44    11    12    1
@<TRIPOS>MOLECULE
*****
 39 44 0 0 0
SMALL
GASTEIGER

@<TRIPOS>ATOM
      1 N          59.9718   96.1902   -0.8855 N.pl3   1  UNL1       -0.2816
      2 H          59.7739   97.1409   -0.7231 H       1  UNL1        0.1551
      3 C          60.3340   95.7244   -2.2646 C.ar    1  UNL1        0.2020
      4 N          59.2554   95.4343   -3.2657 N.ar    1  UNL1       -0.1802
      5 C          59.6176   94.9684   -4.6448 C.ar    1  UNL1        0.2299
      6 C          61.0586   94.7927   -5.0226 C.ar    1  UNL1        0.0887
      7 C          61.7153   94.3508   -6.2967 C.ar    1  UNL1        0.0283
      8 C          63.1999   94.3678   -6.0830 C.ar    1  UNL1        0.1008
      9 N          63.4607   94.8202   -4.6768 N.ar    1  UNL1       -0.2267
     10 C          62.1372   95.0828   -4.0215 C.ar    1  UNL1        0.1471
     11 N          61.7749   95.5487   -2.6424 N.ar    1  UNL1       -0.3117
     12 H          62.4829   95.7391   -1.9853 H       1  UNL1        0.1700
     13 O          58.5389   94.6783   -5.6459 O.3     1  UNL1       -0.4637
     14 C          57.6618   93.4735   -5.4754 C.3     1  UNL1        0.1724
     15 C          57.0965   92.7809   -6.6799 C.3     1  UNL1        0.0757
     16 C          56.2193   91.5761   -6.5095 C.3     1  UNL1        0.1457
     17 O          55.9075   91.0639   -5.1346 O.3     1  UNL1       -0.3583
     18 C          56.4728   91.7565   -3.9301 C.3     1  UNL1        0.0964
     19 C          56.7692   92.0682   -2.4931 C.3     1  UNL1        0.0298
     20 C          55.6986   90.6600   -3.2605 C.3     1  UNL1        0.0298
     21 C          57.3499   92.9613   -4.1005 C.3     1  UNL1        0.0708
     22 C          60.5955   95.5161    1.5448 C.ar    1  UNL1        0.1533
     23 C          60.5349   94.5334    2.6766 C.ar    1  UNL1        0.0527
     24 C          59.7898   93.2423    2.5097 C.ar    1  UNL1        0.0510
     25 C          59.1053   92.9338    1.2111 C.ar    1  UNL1        0.0160
     26 C          59.1660   93.9164    0.0794 C.ar    1  UNL1        0.0190
     27 C          59.9111   95.2076    0.2462 C.ar    1  UNL1        0.0849
     28 N          59.7291   92.2597    3.6414 N.pl3   1  UNL1       -0.3046
     29 C          58.4145   91.9446    4.2914 C.3     1  UNL1        0.1081
     30 C          58.3538   90.9620    5.4231 C.3     1  UNL1        0.0939
     31 N          59.6078   90.2944    5.9047 N.3     1  UNL1       -0.2668
     32 C          60.9224   90.6095    5.2547 C.3     1  UNL1        0.0939
     33 C          60.9831   91.5921    4.1230 C.3     1  UNL1        0.1081
     34 C          59.5472   89.3117    7.0365 C.3     1  UNL1        0.1173
     35 C          59.0023   87.9249    7.2088 C.3     1  UNL1        0.1606
     36 O          59.4615   87.9219    8.6368 O.3     1  UNL1       -0.3507
     37 C          60.0064   89.3088    8.4644 C.3     1  UNL1        0.1606
     38 C          62.8357   96.8311    1.5927 C.3     1  UNL1        0.2525
     39 O          61.3406   96.8072    1.7117 O.3     1  UNL1       -0.4701
@<TRIPOS>BOND
     1    38    39    1
     2    39    22    1
     3    22    23   ar
     4    23    24   ar
     5    24    28    1
     6    28    29    1
     7    29    30    1
     8    30    31    1
     9    31    34    1
    10    34    35    1
    11    35    36    1
    12    36    37    1
    13    31    32    1
    14    32    33    1
    15    24    25   ar
    16    25    26   ar
    17    26    27   ar
    18    27     1    1
    19     1     3    1
    20     3     4   ar
    21     4     5   ar
    22     5    13    1
    23    14    13    1
    24    14    15    1
    25    15    16    1
    26    16    17    1
    27    17    18    1
    28    18    19    1
    29    18    20    1
    30    18    21    1
    31     5     6   ar
    32     6     7   ar
    33     7     8   ar
    34     8     9   ar
    35     9    10   ar
    36    10    11   ar
    37    27    22   ar
    38    11     3   ar
    39    33    28    1
    40    21    14    1
    41    10     6    1
    42    37    34    1
    43     1     2    1
    44    11    12    1
