@<TRIPOS>MOLECULE
*****
 34 37 0 0 0
SMALL
GASTEIGER

@<TRIPOS>ATOM
      1 N          62.0374   86.7535   10.7788 N.pl3   1  UNL1       -0.2872
      2 C          63.2943   82.9029   12.7393 C.ar    1  UNL1        0.0715
      3 C          62.5941   83.9593   13.5416 C.ar    1  UNL1        0.0051
      4 C          62.1751   85.2428   12.8881 C.ar    1  UNL1        0.0148
      5 C          62.4563   85.4700   11.4323 C.ar    1  UNL1        0.0515
      6 C          63.1565   84.4136   10.6300 C.ar    1  UNL1        0.0148
      7 C          63.5755   83.1300   11.2835 C.ar    1  UNL1        0.0051
      8 F          64.1323   80.3359   14.0463 F       1  UNL1       -0.1659
      9 C          63.7133   81.6194   13.3928 C.3     1  UNL1        0.4186
     10 F          63.2463   80.8545   12.1899 F       1  UNL1       -0.1659
     11 F          64.1803   82.3843   14.5956 F       1  UNL1       -0.1659
     12 C          61.0498   86.7329    9.6500 C.ar    1  UNL1        0.0710
     13 C          61.3479   85.9480    8.4070 C.ar    1  UNL1        0.0180
     14 C          60.3603   85.9274    7.2781 C.ar    1  UNL1        0.0220
     15 C          59.0747   86.6917    7.3923 C.ar    1  UNL1        0.0990
     16 N          58.7767   87.4766    8.6353 N.ar    1  UNL1       -0.2410
     17 C          59.7642   87.4972    9.7642 C.ar    1  UNL1        0.1136
     18 C          62.6059   88.0576   11.2542 C.3     1  UNL1        0.0800
     19 C          63.2697   88.1415   12.5967 C.3     1  UNL1        0.0375
     20 C          63.8383   89.4456   13.0721 C.3     1  UNL1        0.0741
     21 N          63.7430   90.6659   12.2050 N.3     1  UNL1       -0.2689
     22 C          63.0793   90.5820   10.8625 C.3     1  UNL1        0.0741
     23 C          62.5107   89.2778   10.3871 C.3     1  UNL1        0.0375
     24 C          64.3116   91.9700   12.6804 C.3     1  UNL1        0.0991
     25 C          65.6741   92.0104   13.3064 C.ar    1  UNL1       -0.0022
     26 C          65.8571   91.5841   14.7328 C.ar    1  UNL1       -0.0030
     27 C          67.2196   91.6246   15.3588 C.ar    1  UNL1       -0.0003
     28 C          68.3992   92.0913   14.5583 C.ar    1  UNL1       -0.0001
     29 C          68.2163   92.5176   13.1319 C.ar    1  UNL1        0.0036
     30 C          66.8537   92.4772   12.5059 C.ar    1  UNL1        0.0688
     31 C          66.6707   92.9034   11.0794 C.3     1  UNL1        0.4183
     32 F          66.4878   93.3297    9.6530 F       1  UNL1       -0.1659
     33 F          65.8353   94.0637   11.5333 F       1  UNL1       -0.1659
     34 F          67.5061   91.7432   10.6256 F       1  UNL1       -0.1659
@<TRIPOS>BOND
     1     8     9    1
     2     9    10    1
     3     9    11    1
     4     9     2    1
     5     2     3   ar
     6     3     4   ar
     7     4     5   ar
     8     5     1    1
     9     1    12    1
    10    12    13   ar
    11    13    14   ar
    12    14    15   ar
    13    15    16   ar
    14    16    17   ar
    15     1    18    1
    16    18    19    1
    17    19    20    1
    18    20    21    1
    19    21    24    1
    20    24    25    1
    21    25    26   ar
    22    26    27   ar
    23    27    28   ar
    24    28    29   ar
    25    29    30   ar
    26    30    31    1
    27    31    32    1
    28    31    33    1
    29    31    34    1
    30    21    22    1
    31    22    23    1
    32     5     6   ar
    33     6     7   ar
    34     7     2   ar
    35    17    12   ar
    36    23    18    1
    37    30    25   ar
@<TRIPOS>MOLECULE
*****
 34 37 0 0 0
SMALL
GASTEIGER

@<TRIPOS>ATOM
      1 N          65.7529   92.9577   11.5240 N.pl3   1  UNL1       -0.2872
      2 C          68.4659   92.7497   15.1082 C.ar    1  UNL1        0.0715
      3 C          68.6952   91.8372   13.9400 C.ar    1  UNL1        0.0051
      4 C          67.7909   91.9065   12.7452 C.ar    1  UNL1        0.0148
      5 C          66.6572   92.8884   12.7187 C.ar    1  UNL1        0.0515
      6 C          66.4279   93.8008   13.8869 C.ar    1  UNL1        0.0148
      7 C          67.3322   93.7315   15.0816 C.ar    1  UNL1        0.0051
      8 F          70.2745   92.6109   17.4976 F       1  UNL1       -0.1659
      9 C          69.3702   92.6803   16.3029 C.3     1  UNL1        0.4186
     10 F          69.9949   93.9849   15.9058 F       1  UNL1       -0.1659
     11 F          68.7455   91.3757   16.7000 F       1  UNL1       -0.1659
     12 C          66.0629   93.9045   10.4026 C.ar    1  UNL1        0.0710
     13 C          67.0771   93.5293    9.3631 C.ar    1  UNL1        0.0180
     14 C          67.3872   94.4761    8.2417 C.ar    1  UNL1        0.0220
     15 C          66.6830   95.7980    8.1598 C.ar    1  UNL1        0.0990
     16 N          65.6688   96.1732    9.1994 N.ar    1  UNL1       -0.2410
     17 C          65.3588   95.2264   10.3208 C.ar    1  UNL1        0.1136
     18 C          64.5385   92.0804   11.4506 C.3     1  UNL1        0.0800
     19 C          63.8368   91.8789   10.1402 C.3     1  UNL1        0.0375
     20 C          62.6224   91.0016   10.0669 C.3     1  UNL1        0.0741
     21 N          62.1097   90.3255   11.3038 N.3     1  UNL1       -0.2689
     22 C          62.8113   90.5269   12.6142 C.3     1  UNL1        0.0741
     23 C          64.0258   91.4043   12.6876 C.3     1  UNL1        0.0375
     24 C          60.8952   89.4481   11.2304 C.3     1  UNL1        0.0991
     25 C          60.7025   88.5306   10.0595 C.ar    1  UNL1       -0.0022
     26 C          59.8620   88.9660    8.8959 C.ar    1  UNL1       -0.0030
     27 C          59.6693   88.0485    7.7250 C.ar    1  UNL1       -0.0003
     28 C          60.3171   86.6955    7.7177 C.ar    1  UNL1       -0.0001
     29 C          61.1576   86.2602    8.8814 C.ar    1  UNL1        0.0036
     30 C          61.3503   87.1778   10.0523 C.ar    1  UNL1        0.0688
     31 C          62.1908   86.7424   11.2159 C.3     1  UNL1        0.4183
     32 F          63.0314   86.3071   12.3795 F       1  UNL1       -0.1659
     33 F          61.1588   85.7156   11.5772 F       1  UNL1       -0.1659
     34 F          63.2228   87.7693   10.8546 F       1  UNL1       -0.1659
@<TRIPOS>BOND
     1     8     9    1
     2     9    10    1
     3     9    11    1
     4     9     2    1
     5     2     3   ar
     6     3     4   ar
     7     4     5   ar
     8     5     1    1
     9     1    12    1
    10    12    13   ar
    11    13    14   ar
    12    14    15   ar
    13    15    16   ar
    14    16    17   ar
    15     1    18    1
    16    18    19    1
    17    19    20    1
    18    20    21    1
    19    21    24    1
    20    24    25    1
    21    25    26   ar
    22    26    27   ar
    23    27    28   ar
    24    28    29   ar
    25    29    30   ar
    26    30    31    1
    27    31    32    1
    28    31    33    1
    29    31    34    1
    30    21    22    1
    31    22    23    1
    32     5     6   ar
    33     6     7   ar
    34     7     2   ar
    35    17    12   ar
    36    23    18    1
    37    30    25   ar
@<TRIPOS>MOLECULE
*****
 34 37 0 0 0
SMALL
GASTEIGER

@<TRIPOS>ATOM
      1 N          62.7841   85.3271   11.9831 N.pl3   1  UNL1       -0.2872
      2 C          62.0944   84.8436    7.5626 C.ar    1  UNL1        0.0715
      3 C          61.1107   85.6105    8.3957 C.ar    1  UNL1        0.0051
      4 C          61.3406   85.7717    9.8692 C.ar    1  UNL1        0.0148
      5 C          62.5542   85.1659   10.5096 C.ar    1  UNL1        0.0515
      6 C          63.5379   84.3989    9.6765 C.ar    1  UNL1        0.0148
      7 C          63.3080   84.2377    8.2030 C.ar    1  UNL1        0.0051
      8 F          61.6347   84.5212    4.6156 F       1  UNL1       -0.1659
      9 C          61.8645   84.6824    6.0891 C.3     1  UNL1        0.4186
     10 F          60.3826   84.7374    6.3143 F       1  UNL1       -0.1659
     11 F          63.3465   84.6274    5.8639 F       1  UNL1       -0.1659
     12 C          62.6103   84.1543   12.9020 C.ar    1  UNL1        0.0710
     13 C          62.5316   82.7660   12.3395 C.ar    1  UNL1        0.0180
     14 C          62.3578   81.5932   13.2585 C.ar    1  UNL1        0.0220
     15 C          62.2627   81.8087   14.7398 C.ar    1  UNL1        0.0990
     16 N          62.3414   83.1971   15.3023 N.ar    1  UNL1       -0.2410
     17 C          62.5152   84.3698   14.3834 C.ar    1  UNL1        0.1136
     18 C          63.1877   86.6610   12.5377 C.3     1  UNL1        0.0800
     19 C          62.7721   87.9211   11.8380 C.3     1  UNL1        0.0375
     20 C          63.1757   89.2550   12.3926 C.3     1  UNL1        0.0741
     21 N          63.9950   89.3289   13.6469 N.3     1  UNL1       -0.2689
     22 C          64.4107   88.0689   14.3466 C.3     1  UNL1        0.0741
     23 C          64.0070   86.7349   13.7920 C.3     1  UNL1        0.0375
     24 C          64.3987   90.6630   14.2015 C.3     1  UNL1        0.0991
     25 C          65.0513   91.6788   13.3116 C.ar    1  UNL1       -0.0022
     26 C          64.5307   91.9041   11.9230 C.ar    1  UNL1       -0.0030
     27 C          65.1833   92.9200   11.0330 C.ar    1  UNL1       -0.0003
     28 C          66.3565   93.7106   11.5316 C.ar    1  UNL1       -0.0001
     29 C          66.8771   93.4853   12.9202 C.ar    1  UNL1        0.0036
     30 C          66.2244   92.4694   13.8102 C.ar    1  UNL1        0.0688
     31 C          66.7450   92.2441   15.1988 C.3     1  UNL1        0.4183
     32 F          67.2655   92.0188   16.5875 F       1  UNL1       -0.1659
     33 F          65.7382   93.2186   15.7344 F       1  UNL1       -0.1659
     34 F          67.7517   91.2696   14.6633 F       1  UNL1       -0.1659
@<TRIPOS>BOND
     1     8     9    1
     2     9    10    1
     3     9    11    1
     4     9     2    1
     5     2     3   ar
     6     3     4   ar
     7     4     5   ar
     8     5     1    1
     9     1    12    1
    10    12    13   ar
    11    13    14   ar
    12    14    15   ar
    13    15    16   ar
    14    16    17   ar
    15     1    18    1
    16    18    19    1
    17    19    20    1
    18    20    21    1
    19    21    24    1
    20    24    25    1
    21    25    26   ar
    22    26    27   ar
    23    27    28   ar
    24    28    29   ar
    25    29    30   ar
    26    30    31    1
    27    31    32    1
    28    31    33    1
    29    31    34    1
    30    21    22    1
    31    22    23    1
    32     5     6   ar
    33     6     7   ar
    34     7     2   ar
    35    17    12   ar
    36    23    18    1
    37    30    25   ar
@<TRIPOS>MOLECULE
*****
 34 37 0 0 0
SMALL
GASTEIGER

@<TRIPOS>ATOM
      1 N          62.3395   86.0069   11.6356 N.pl3   1  UNL1       -0.2872
      2 C          62.7381   81.7918   13.1600 C.ar    1  UNL1        0.0715
      3 C          62.2680   82.8803   14.0787 C.ar    1  UNL1        0.0051
      4 C          62.1351   84.2853   13.5706 C.ar    1  UNL1        0.0148
      5 C          62.4724   84.6019   12.1437 C.ar    1  UNL1        0.0515
      6 C          62.9425   83.5134   11.2250 C.ar    1  UNL1        0.0148
      7 C          63.0754   82.1083   11.7331 C.ar    1  UNL1        0.0051
      8 F          63.0039   78.9817   14.1762 F       1  UNL1       -0.1659
      9 C          62.8710   80.3867   13.6681 C.3     1  UNL1        0.4186
     10 F          64.3649   80.5043   13.6025 F       1  UNL1       -0.1659
     11 F          61.3771   80.2692   13.7337 F       1  UNL1       -0.1659
     12 C          61.5535   86.2821   10.3880 C.ar    1  UNL1        0.0710
     13 C          61.9976   85.7010    9.0783 C.ar    1  UNL1        0.0180
     14 C          61.2116   85.9763    7.8307 C.ar    1  UNL1        0.0220
     15 C          59.9815   86.8324    7.8928 C.ar    1  UNL1        0.0990
     16 N          59.5374   87.4135    9.2024 N.ar    1  UNL1       -0.2410
     17 C          60.3234   87.1383   10.4500 C.ar    1  UNL1        0.1136
     18 C          62.9925   87.1368   12.3750 C.3     1  UNL1        0.0800
     19 C          63.7496   86.8661   13.6414 C.3     1  UNL1        0.0375
     20 C          64.4027   87.9960   14.3809 C.3     1  UNL1        0.0741
     21 N          64.2987   89.3966   13.8540 N.3     1  UNL1       -0.2689
     22 C          63.5418   89.6672   12.5876 C.3     1  UNL1        0.0741
     23 C          62.8886   88.5373   11.8481 C.3     1  UNL1        0.0375
     24 C          64.9519   90.5265   14.5935 C.3     1  UNL1        0.0991
     25 C          65.4438   91.7287   13.8435 C.ar    1  UNL1       -0.0022
     26 C          64.8548   92.0719   12.5073 C.ar    1  UNL1       -0.0030
     27 C          65.3467   93.2741   11.7573 C.ar    1  UNL1       -0.0003
     28 C          66.4277   94.1332   12.3434 C.ar    1  UNL1       -0.0001
     29 C          67.0167   93.7900   13.6795 C.ar    1  UNL1        0.0036
     30 C          66.5248   92.5877   14.4296 C.ar    1  UNL1        0.0688
     31 C          67.1138   92.2445   15.7657 C.3     1  UNL1        0.4183
     32 F          67.7028   91.9013   17.1019 F       1  UNL1       -0.1659
     33 F          68.0203   91.2458   15.1095 F       1  UNL1       -0.1659
     34 F          66.2072   93.2433   16.4219 F       1  UNL1       -0.1659
@<TRIPOS>BOND
     1     8     9    1
     2     9    10    1
     3     9    11    1
     4     9     2    1
     5     2     3   ar
     6     3     4   ar
     7     4     5   ar
     8     5     1    1
     9     1    12    1
    10    12    13   ar
    11    13    14   ar
    12    14    15   ar
    13    15    16   ar
    14    16    17   ar
    15     1    18    1
    16    18    19    1
    17    19    20    1
    18    20    21    1
    19    21    24    1
    20    24    25    1
    21    25    26   ar
    22    26    27   ar
    23    27    28   ar
    24    28    29   ar
    25    29    30   ar
    26    30    31    1
    27    31    32    1
    28    31    33    1
    29    31    34    1
    30    21    22    1
    31    22    23    1
    32     5     6   ar
    33     6     7   ar
    34     7     2   ar
    35    17    12   ar
    36    23    18    1
    37    30    25   ar
@<TRIPOS>MOLECULE
*****
 34 37 0 0 0
SMALL
GASTEIGER

@<TRIPOS>ATOM
      1 N          65.7752   93.0319   11.5606 N.pl3   1  UNL1       -0.2872
      2 C          68.4739   92.7827   15.1529 C.ar    1  UNL1        0.0715
      3 C          68.6678   91.8400   14.0023 C.ar    1  UNL1        0.0051
      4 C          67.7682   91.9231   12.8049 C.ar    1  UNL1        0.0148
      5 C          66.6747   92.9488   12.7580 C.ar    1  UNL1        0.0515
      6 C          66.4809   93.8914   13.9086 C.ar    1  UNL1        0.0148
      7 C          67.3804   93.8084   15.1060 C.ar    1  UNL1        0.0051
      8 F          70.2731   92.6165   17.5477 F       1  UNL1       -0.1659
      9 C          69.3735   92.6996   16.3503 C.3     1  UNL1        0.4186
     10 F          68.8733   91.3133   16.6299 F       1  UNL1       -0.1659
     11 F          69.8736   94.0858   16.0707 F       1  UNL1       -0.1659
     12 C          66.0299   94.0627   10.5012 C.ar    1  UNL1        0.0710
     13 C          65.3366   95.3913   10.5653 C.ar    1  UNL1        0.0180
     14 C          65.5914   96.4222    9.5058 C.ar    1  UNL1        0.0220
     15 C          66.5395   96.1245    8.3823 C.ar    1  UNL1        0.0990
     16 N          67.2329   94.7959    8.3182 N.ar    1  UNL1       -0.2410
     17 C          66.9781   93.7650    9.3776 C.ar    1  UNL1        0.1136
     18 C          64.6208   92.0841   11.4225 C.3     1  UNL1        0.0800
     19 C          64.1548   91.2920   12.6081 C.3     1  UNL1        0.0375
     20 C          63.0005   90.3442   12.4700 C.3     1  UNL1        0.0741
     21 N          62.3120   90.1885   11.1465 N.3     1  UNL1       -0.2689
     22 C          62.7779   90.9805    9.9610 C.3     1  UNL1        0.0741
     23 C          63.9324   91.9284   10.0990 C.3     1  UNL1        0.0375
     24 C          61.1576   89.2406   11.0085 C.3     1  UNL1        0.0991
     25 C          61.3976   87.8241   10.5775 C.ar    1  UNL1       -0.0022
     26 C          62.2876   86.9328   11.3921 C.ar    1  UNL1       -0.0030
     27 C          62.5277   85.5163   10.9610 C.ar    1  UNL1       -0.0003
     28 C          61.8777   84.9910    9.7154 C.ar    1  UNL1       -0.0001
     29 C          60.9877   85.8822    8.9008 C.ar    1  UNL1        0.0036
     30 C          60.7477   87.2988    9.3319 C.ar    1  UNL1        0.0688
     31 C          59.8576   88.1901    8.5173 C.3     1  UNL1        0.4183
     32 F          58.9676   89.0813    7.7027 F       1  UNL1       -0.1659
     33 F          60.9899   89.1577    8.3389 F       1  UNL1       -0.1659
     34 F          58.7254   87.2225    8.6956 F       1  UNL1       -0.1659
@<TRIPOS>BOND
     1     8     9    1
     2     9    10    1
     3     9    11    1
     4     9     2    1
     5     2     3   ar
     6     3     4   ar
     7     4     5   ar
     8     5     1    1
     9     1    12    1
    10    12    13   ar
    11    13    14   ar
    12    14    15   ar
    13    15    16   ar
    14    16    17   ar
    15     1    18    1
    16    18    19    1
    17    19    20    1
    18    20    21    1
    19    21    24    1
    20    24    25    1
    21    25    26   ar
    22    26    27   ar
    23    27    28   ar
    24    28    29   ar
    25    29    30   ar
    26    30    31    1
    27    31    32    1
    28    31    33    1
    29    31    34    1
    30    21    22    1
    31    22    23    1
    32     5     6   ar
    33     6     7   ar
    34     7     2   ar
    35    17    12   ar
    36    23    18    1
    37    30    25   ar
@<TRIPOS>MOLECULE
*****
 34 37 0 0 0
SMALL
GASTEIGER

@<TRIPOS>ATOM
      1 N          63.0040   86.0606   12.0476 N.pl3   1  UNL1       -0.2872
      2 C          61.9160   85.0363    7.8029 C.ar    1  UNL1        0.0715
      3 C          61.0402   85.9565    8.6004 C.ar    1  UNL1        0.0051
      4 C          61.4029   86.2980   10.0153 C.ar    1  UNL1        0.0148
      5 C          62.6413   85.7192   10.6327 C.ar    1  UNL1        0.0515
      6 C          63.5171   84.7989    9.8351 C.ar    1  UNL1        0.0148
      7 C          63.1544   84.4575    8.4203 C.ar    1  UNL1        0.0051
      8 F          61.1906   84.3534    4.9731 F       1  UNL1       -0.1659
      9 C          61.5533   84.6949    6.3880 C.3     1  UNL1        0.4186
     10 F          63.0039   84.4901    6.0656 F       1  UNL1       -0.1659
     11 F          60.1028   84.8996    6.7104 F       1  UNL1       -0.1659
     12 C          63.0864   84.9783   13.0827 C.ar    1  UNL1        0.0710
     13 C          64.2288   84.0064   13.0624 C.ar    1  UNL1        0.0180
     14 C          64.3112   82.9240   14.0977 C.ar    1  UNL1        0.0220
     15 C          63.2512   82.8135   15.1532 C.ar    1  UNL1        0.0990
     16 N          62.1088   83.7854   15.1735 N.ar    1  UNL1       -0.2410
     17 C          62.0264   84.8677   14.1383 C.ar    1  UNL1        0.1136
     18 C          63.2843   87.4844   12.4272 C.3     1  UNL1        0.0800
     19 C          64.0180   87.7909   13.6992 C.3     1  UNL1        0.0375
     20 C          64.2983   89.2147   14.0789 C.3     1  UNL1        0.0741
     21 N          63.8449   90.3320   13.1867 N.3     1  UNL1       -0.2689
     22 C          63.1112   90.0256   11.9148 C.3     1  UNL1        0.0741
     23 C          62.8309   88.6017   11.5351 C.3     1  UNL1        0.0375
     24 C          64.1252   91.7559   13.5664 C.3     1  UNL1        0.0991
     25 C          65.4225   92.1140   14.2288 C.ar    1  UNL1       -0.0022
     26 C          65.5376   92.0736   15.7238 C.ar    1  UNL1       -0.0030
     27 C          66.8349   92.4316   16.3862 C.ar    1  UNL1       -0.0003
     28 C          68.0172   92.8301   15.5535 C.ar    1  UNL1       -0.0001
     29 C          67.9022   92.8705   14.0584 C.ar    1  UNL1        0.0036
     30 C          66.6048   92.5124   13.3961 C.ar    1  UNL1        0.0688
     31 C          66.4897   92.5528   11.9010 C.3     1  UNL1        0.4183
     32 F          66.3747   92.5932   10.4060 F       1  UNL1       -0.1659
     33 F          65.4234   93.6020   12.0115 F       1  UNL1       -0.1659
     34 F          67.5561   91.5037   11.7906 F       1  UNL1       -0.1659
@<TRIPOS>BOND
     1     8     9    1
     2     9    10    1
     3     9    11    1
     4     9     2    1
     5     2     3   ar
     6     3     4   ar
     7     4     5   ar
     8     5     1    1
     9     1    12    1
    10    12    13   ar
    11    13    14   ar
    12    14    15   ar
    13    15    16   ar
    14    16    17   ar
    15     1    18    1
    16    18    19    1
    17    19    20    1
    18    20    21    1
    19    21    24    1
    20    24    25    1
    21    25    26   ar
    22    26    27   ar
    23    27    28   ar
    24    28    29   ar
    25    29    30   ar
    26    30    31    1
    27    31    32    1
    28    31    33    1
    29    31    34    1
    30    21    22    1
    31    22    23    1
    32     5     6   ar
    33     6     7   ar
    34     7     2   ar
    35    17    12   ar
    36    23    18    1
    37    30    25   ar
@<TRIPOS>MOLECULE
*****
 34 37 0 0 0
SMALL
GASTEIGER

@<TRIPOS>ATOM
      1 N          63.3795   89.3634   12.9173 N.pl3   1  UNL1       -0.2872
      2 C          66.1532   92.5187   14.5300 C.ar    1  UNL1        0.0715
      3 C          66.0386   92.3065   13.0496 C.ar    1  UNL1        0.0051
      4 C          65.1140   91.2547   12.5120 C.ar    1  UNL1        0.0148
      5 C          64.3041   90.4152   13.4549 C.ar    1  UNL1        0.0515
      6 C          64.4187   90.6274   14.9353 C.ar    1  UNL1        0.0148
      7 C          65.3432   91.6792   15.4729 C.ar    1  UNL1        0.0051
      8 F          68.0023   94.6223   15.6052 F       1  UNL1       -0.1659
      9 C          67.0777   93.5705   15.0676 C.3     1  UNL1        0.4186
     10 F          66.6013   94.5272   14.0151 F       1  UNL1       -0.1659
     11 F          67.5541   92.6138   16.1201 F       1  UNL1       -0.1659
     12 C          62.2176   89.7564   12.0539 C.ar    1  UNL1        0.0710
     13 C          62.4301   90.0496   10.5983 C.ar    1  UNL1        0.0180
     14 C          61.2681   90.4426    9.7349 C.ar    1  UNL1        0.0220
     15 C          59.8937   90.5425   10.3272 C.ar    1  UNL1        0.0990
     16 N          59.6811   90.2493   11.7829 N.ar    1  UNL1       -0.2410
     17 C          60.8431   89.8563   12.6462 C.ar    1  UNL1        0.1136
     18 C          63.6169   87.9186   13.2430 C.3     1  UNL1        0.0800
     19 C          63.0631   86.8477   12.3505 C.3     1  UNL1        0.0375
     20 C          63.3005   85.4029   12.6763 C.3     1  UNL1        0.0741
     21 N          64.0917   85.0289   13.8946 N.3     1  UNL1       -0.2689
     22 C          64.6454   86.0998   14.7871 C.3     1  UNL1        0.0741
     23 C          64.4081   87.5446   14.4613 C.3     1  UNL1        0.0375
     24 C          64.3290   83.5840   14.2203 C.3     1  UNL1        0.0991
     25 C          63.3062   82.5529   13.8455 C.ar    1  UNL1       -0.0022
     26 C          62.2984   82.0938   14.8573 C.ar    1  UNL1       -0.0030
     27 C          61.2756   81.0626   14.4825 C.ar    1  UNL1       -0.0003
     28 C          61.2605   80.4905   13.0959 C.ar    1  UNL1       -0.0001
     29 C          62.2682   80.9497   12.0842 C.ar    1  UNL1        0.0036
     30 C          63.2911   81.9809   12.4590 C.ar    1  UNL1        0.0688
     31 C          64.2989   82.4400   11.4473 C.3     1  UNL1        0.4183
     32 F          65.3066   82.8991   10.4355 F       1  UNL1       -0.1659
     33 F          63.2030   83.0759   10.6443 F       1  UNL1       -0.1659
     34 F          65.3947   81.8041   12.2502 F       1  UNL1       -0.1659
@<TRIPOS>BOND
     1     8     9    1
     2     9    10    1
     3     9    11    1
     4     9     2    1
     5     2     3   ar
     6     3     4   ar
     7     4     5   ar
     8     5     1    1
     9     1    12    1
    10    12    13   ar
    11    13    14   ar
    12    14    15   ar
    13    15    16   ar
    14    16    17   ar
    15     1    18    1
    16    18    19    1
    17    19    20    1
    18    20    21    1
    19    21    24    1
    20    24    25    1
    21    25    26   ar
    22    26    27   ar
    23    27    28   ar
    24    28    29   ar
    25    29    30   ar
    26    30    31    1
    27    31    32    1
    28    31    33    1
    29    31    34    1
    30    21    22    1
    31    22    23    1
    32     5     6   ar
    33     6     7   ar
    34     7     2   ar
    35    17    12   ar
    36    23    18    1
    37    30    25   ar
@<TRIPOS>MOLECULE
*****
 34 37 0 0 0
SMALL
GASTEIGER

@<TRIPOS>ATOM
      1 N          63.2896   89.1974   12.7257 N.pl3   1  UNL1       -0.2872
      2 C          65.9499   92.4560   14.3240 C.ar    1  UNL1        0.0715
      3 C          65.6162   92.4096   12.8624 C.ar    1  UNL1        0.0051
      4 C          64.7295   91.3234   12.3296 C.ar    1  UNL1        0.0148
      5 C          64.1764   90.2836   13.2584 C.ar    1  UNL1        0.0515
      6 C          64.5101   90.3300   14.7201 C.ar    1  UNL1        0.0148
      7 C          65.3969   91.4161   15.2529 C.ar    1  UNL1        0.0051
      8 F          67.7235   94.6283   15.3896 F       1  UNL1       -0.1659
      9 C          66.8367   93.5421   14.8568 C.3     1  UNL1        0.4186
     10 F          66.5619   94.3663   13.6340 F       1  UNL1       -0.1659
     11 F          67.1116   92.7180   16.0796 F       1  UNL1       -0.1659
     12 C          62.0826   89.5486   11.9073 C.ar    1  UNL1        0.0710
     13 C          62.1978   89.6752   10.4171 C.ar    1  UNL1        0.0180
     14 C          60.9906   90.0264    9.5987 C.ar    1  UNL1        0.0220
     15 C          59.6685   90.2508   10.2706 C.ar    1  UNL1        0.0990
     16 N          59.5533   90.1241   11.7608 N.ar    1  UNL1       -0.2410
     17 C          60.7603   89.7730   12.5791 C.ar    1  UNL1        0.1136
     18 C          63.6099   87.7602   13.0112 C.3     1  UNL1        0.0800
     19 C          64.4166   87.3979   14.2229 C.3     1  UNL1        0.0375
     20 C          64.7368   85.9606   14.5085 C.3     1  UNL1        0.0741
     21 N          64.2504   84.8855   13.5824 N.3     1  UNL1       -0.2689
     22 C          63.4438   85.2477   12.3708 C.3     1  UNL1        0.0741
     23 C          63.1235   86.6851   12.0852 C.3     1  UNL1        0.0375
     24 C          64.5707   83.4482   13.8681 C.3     1  UNL1        0.0991
     25 C          63.4959   82.4065   13.7704 C.ar    1  UNL1       -0.0022
     26 C          63.6947   81.2033   12.8971 C.ar    1  UNL1       -0.0030
     27 C          62.6198   80.1616   12.7994 C.ar    1  UNL1       -0.0003
     28 C          61.3460   80.3232   13.5750 C.ar    1  UNL1       -0.0001
     29 C          61.1473   81.5264   14.4483 C.ar    1  UNL1        0.0036
     30 C          62.2222   82.5681   14.5460 C.ar    1  UNL1        0.0688
     31 C          62.0234   83.7714   15.4193 C.3     1  UNL1        0.4183
     32 F          61.8246   84.9746   16.2927 F       1  UNL1       -0.1659
     33 F          61.1800   84.4057   14.3534 F       1  UNL1       -0.1659
     34 F          62.8669   83.1371   16.4853 F       1  UNL1       -0.1659
@<TRIPOS>BOND
     1     8     9    1
     2     9    10    1
     3     9    11    1
     4     9     2    1
     5     2     3   ar
     6     3     4   ar
     7     4     5   ar
     8     5     1    1
     9     1    12    1
    10    12    13   ar
    11    13    14   ar
    12    14    15   ar
    13    15    16   ar
    14    16    17   ar
    15     1    18    1
    16    18    19    1
    17    19    20    1
    18    20    21    1
    19    21    24    1
    20    24    25    1
    21    25    26   ar
    22    26    27   ar
    23    27    28   ar
    24    28    29   ar
    25    29    30   ar
    26    30    31    1
    27    31    32    1
    28    31    33    1
    29    31    34    1
    30    21    22    1
    31    22    23    1
    32     5     6   ar
    33     6     7   ar
    34     7     2   ar
    35    17    12   ar
    36    23    18    1
    37    30    25   ar
@<TRIPOS>MOLECULE
*****
 34 37 0 0 0
SMALL
GASTEIGER

@<TRIPOS>ATOM
      1 N          62.9930   89.0880   12.4539 N.pl3   1  UNL1       -0.2872
      2 C          65.8324   92.0847   14.2448 C.ar    1  UNL1        0.0715
      3 C          65.2950   90.9651   15.0859 C.ar    1  UNL1        0.0051
      4 C          64.3485   89.9661   14.4889 C.ar    1  UNL1        0.0148
      5 C          63.9395   90.0869   13.0508 C.ar    1  UNL1        0.0515
      6 C          64.4769   91.2066   12.2098 C.ar    1  UNL1        0.0148
      7 C          65.4234   92.2055   12.8067 C.ar    1  UNL1        0.0051
      8 F          67.7253   94.0825   15.4388 F       1  UNL1       -0.1659
      9 C          66.7789   93.0836   14.8418 C.3     1  UNL1        0.4186
     10 F          66.2879   94.1241   13.8793 F       1  UNL1       -0.1659
     11 F          67.2698   92.0432   15.8043 F       1  UNL1       -0.1659
     12 C          61.8397   89.5551   11.6163 C.ar    1  UNL1        0.0710
     13 C          61.9395   89.5269   10.1199 C.ar    1  UNL1        0.0180
     14 C          60.7860   89.9940    9.2824 C.ar    1  UNL1        0.0220
     15 C          59.5329   90.4894    9.9412 C.ar    1  UNL1        0.0990
     16 N          59.4330   90.5176   11.4376 N.ar    1  UNL1       -0.2410
     17 C          60.5864   90.0505   12.2752 C.ar    1  UNL1        0.1136
     18 C          63.1999   87.6220   12.6944 C.3     1  UNL1        0.0800
     19 C          64.0081   87.1617   13.8714 C.3     1  UNL1        0.0375
     20 C          64.2150   85.6957   14.1119 C.3     1  UNL1        0.0741
     21 N          63.6137   84.6898   13.1756 N.3     1  UNL1       -0.2689
     22 C          62.8056   85.1500   11.9987 C.3     1  UNL1        0.0741
     23 C          62.5986   86.6161   11.7581 C.3     1  UNL1        0.0375
     24 C          63.8207   83.2237   13.4162 C.3     1  UNL1        0.0991
     25 C          63.6407   82.2466   12.2926 C.ar    1  UNL1       -0.0022
     26 C          64.2970   82.4981   10.9675 C.ar    1  UNL1       -0.0030
     27 C          64.1170   81.5209    9.8438 C.ar    1  UNL1       -0.0003
     28 C          63.2806   80.2921   10.0452 C.ar    1  UNL1       -0.0001
     29 C          62.6242   80.0406   11.3703 C.ar    1  UNL1        0.0036
     30 C          62.8043   81.0178   12.4940 C.ar    1  UNL1        0.0688
     31 C          62.1479   80.7663   13.8191 C.3     1  UNL1        0.4183
     32 F          61.4915   80.5147   15.1442 F       1  UNL1       -0.1659
     33 F          60.9065   81.4552   13.3350 F       1  UNL1       -0.1659
     34 F          63.3893   80.0773   14.3032 F       1  UNL1       -0.1659
@<TRIPOS>BOND
     1     8     9    1
     2     9    10    1
     3     9    11    1
     4     9     2    1
     5     2     3   ar
     6     3     4   ar
     7     4     5   ar
     8     5     1    1
     9     1    12    1
    10    12    13   ar
    11    13    14   ar
    12    14    15   ar
    13    15    16   ar
    14    16    17   ar
    15     1    18    1
    16    18    19    1
    17    19    20    1
    18    20    21    1
    19    21    24    1
    20    24    25    1
    21    25    26   ar
    22    26    27   ar
    23    27    28   ar
    24    28    29   ar
    25    29    30   ar
    26    30    31    1
    27    31    32    1
    28    31    33    1
    29    31    34    1
    30    21    22    1
    31    22    23    1
    32     5     6   ar
    33     6     7   ar
    34     7     2   ar
    35    17    12   ar
    36    23    18    1
    37    30    25   ar
