@<TRIPOS>MOLECULE
*****
 32 33 0 0 0
SMALL
GASTEIGER

@<TRIPOS>ATOM
      1 C          63.9012   90.7704   13.4006 C.3     1  UNL1        0.0855
      2 C          65.9129   92.3985   13.1723 C.2     1  UNL1        0.4014
      3 O          65.6344   92.9352   14.5450 O.2     1  UNL1       -0.2264
      4 N          65.0463   91.3161   12.6001 N.am    1  UNL1       -0.2714
      5 H          65.2291   90.9638   11.6991 H       1  UNL1        0.1527
      6 O          67.0581   92.9442   12.3718 O.3     1  UNL1       -0.4419
      7 C          67.5193   92.3921   10.3762 C.3     1  UNL1        0.0437
      8 C          66.8092   93.5456   11.0204 C.3     1  UNL1        0.1378
      9 C          66.0990   94.6991   11.6646 C.3     1  UNL1        0.0437
     10 C          66.5602   94.1471    9.6689 C.3     1  UNL1        0.0437
     11 C          62.5802   90.5106   12.7393 C.3     1  UNL1        0.0772
     12 S          62.4884   89.5321   11.6062 S.3     1  UNL1       -0.1380
     13 C          61.1561   89.2178   10.9927 C.3     1  UNL1        0.0672
     14 C          60.6592   87.8028   10.9629 C.3     1  UNL1        0.0967
     15 C          61.6149   86.6778   10.6965 C.2     1  UNL1        0.2236
     16 O          62.3023   86.5765    9.3672 O.2     1  UNL1       -0.2751
     17 N          61.8832   85.6540   11.7595 N.am    1  UNL1       -0.3004
     18 H          61.4320   85.7205   12.6320 H       1  UNL1        0.1497
     19 C          62.8388   84.5290   11.4932 C.3     1  UNL1        0.1179
     20 C          62.7768   83.2801   12.3218 C.ar    1  UNL1        0.0166
     21 C          62.8480   81.9362   11.6594 C.ar    1  UNL1        0.0005
     22 C          62.7860   80.6875   12.4880 C.ar    1  UNL1        0.0204
     23 C          62.6528   80.7826   13.9790 C.ar    1  UNL1        0.0989
     24 N          62.5816   82.1265   14.6415 N.ar    1  UNL1       -0.2426
     25 C          62.6436   83.3752   13.8129 C.ar    1  UNL1        0.0962
     26 C          64.0771   90.4845   14.8627 C.3     1  UNL1        0.0206
     27 C          63.8731   89.0931   15.3846 C.3     1  UNL1        0.0017
     28 C          63.1711   88.8781   16.6927 C.3     1  UNL1        0.0001
     29 C          62.9671   87.4867   17.2146 C.3     1  UNL1        0.0000
     30 C          63.4651   86.3103   16.4284 C.3     1  UNL1        0.0000
     31 C          64.1671   86.5253   15.1204 C.3     1  UNL1        0.0000
     32 C          64.3711   87.9167   14.5985 C.3     1  UNL1        0.0001
@<TRIPOS>BOND
     1     7     8    1
     2     8     9    1
     3     8    10    1
     4     8     6    1
     5     6     2    1
     6     2     3    2
     7     2     4   am
     8     4     1    1
     9     1    11    1
    10    11    12    1
    11    12    13    1
    12    13    14    1
    13    14    15    1
    14    15    16    2
    15    15    17   am
    16    17    19    1
    17    19    20    1
    18    20    21   ar
    19    21    22   ar
    20    22    23   ar
    21    23    24   ar
    22    24    25   ar
    23     1    26    1
    24    26    27    1
    25    27    28    1
    26    28    29    1
    27    29    30    1
    28    30    31    1
    29    31    32    1
    30    25    20   ar
    31    32    27    1
    32     4     5    1
    33    17    18    1
@<TRIPOS>MOLECULE
*****
 32 33 0 0 0
SMALL
GASTEIGER

@<TRIPOS>ATOM
      1 C          63.9302   90.8096   13.2798 C.3     1  UNL1        0.0855
      2 C          66.0872   92.2442   13.0817 C.2     1  UNL1        0.4014
      3 O          66.8111   91.2790   13.9729 O.2     1  UNL1       -0.2264
      4 N          64.6467   92.0095   12.7351 N.am    1  UNL1       -0.2714
      5 H          64.1716   92.6431   12.1502 H       1  UNL1        0.1527
      6 O          66.8037   93.4442   12.5370 O.3     1  UNL1       -0.4419
      7 C          67.4008   92.3956   10.7924 C.3     1  UNL1        0.0437
      8 C          66.7746   93.7310   11.0650 C.3     1  UNL1        0.1378
      9 C          66.1483   95.0664   11.3376 C.3     1  UNL1        0.0437
     10 C          66.7454   94.0178    9.5929 C.3     1  UNL1        0.0437
     11 C          63.3096   89.8169   12.3420 C.3     1  UNL1        0.0772
     12 S          62.2684   90.2634   11.3590 S.3     1  UNL1       -0.1380
     13 C          60.8201   90.2654   11.7495 C.3     1  UNL1        0.0672
     14 C          59.9949   89.0248   11.5761 C.3     1  UNL1        0.0967
     15 C          60.5065   87.8957   10.7317 C.2     1  UNL1        0.2236
     16 O          60.3032   87.9185    9.2457 O.2     1  UNL1       -0.2751
     17 N          61.2216   86.7436   11.3732 N.am    1  UNL1       -0.3004
     18 H          61.3551   86.7286   12.3485 H       1  UNL1        0.1497
     19 C          61.7333   85.6145   10.5287 C.3     1  UNL1        0.1179
     20 C          62.6996   84.6235   11.1070 C.ar    1  UNL1        0.0166
     21 C          62.7541   84.4069   12.5902 C.ar    1  UNL1        0.0005
     22 C          63.7204   83.4160   13.1684 C.ar    1  UNL1        0.0204
     23 C          64.6322   82.6417   12.2633 C.ar    1  UNL1        0.0989
     24 N          64.5776   82.8583   10.7801 N.ar    1  UNL1       -0.2426
     25 C          63.6113   83.8492   10.2019 C.ar    1  UNL1        0.0962
     26 C          63.8343   90.6023   14.7623 C.3     1  UNL1        0.0206
     27 C          63.7512   89.2129   15.3215 C.3     1  UNL1        0.0017
     28 C          64.3987   88.0718   14.5943 C.3     1  UNL1        0.0001
     29 C          64.3156   86.6824   15.1534 C.3     1  UNL1        0.0000
     30 C          63.5851   86.4341   16.4399 C.3     1  UNL1        0.0000
     31 C          62.9377   87.5751   17.1670 C.3     1  UNL1        0.0000
     32 C          63.0208   88.9645   16.6079 C.3     1  UNL1        0.0001
@<TRIPOS>BOND
     1     7     8    1
     2     8     9    1
     3     8    10    1
     4     8     6    1
     5     6     2    1
     6     2     3    2
     7     2     4   am
     8     4     1    1
     9     1    11    1
    10    11    12    1
    11    12    13    1
    12    13    14    1
    13    14    15    1
    14    15    16    2
    15    15    17   am
    16    17    19    1
    17    19    20    1
    18    20    21   ar
    19    21    22   ar
    20    22    23   ar
    21    23    24   ar
    22    24    25   ar
    23     1    26    1
    24    26    27    1
    25    27    28    1
    26    28    29    1
    27    29    30    1
    28    30    31    1
    29    31    32    1
    30    25    20   ar
    31    32    27    1
    32     4     5    1
    33    17    18    1
@<TRIPOS>MOLECULE
*****
 32 33 0 0 0
SMALL
GASTEIGER

@<TRIPOS>ATOM
      1 C          63.9362   90.6156   15.0595 C.3     1  UNL1        0.0855
      2 C          65.3958   92.3902   16.2720 C.2     1  UNL1        0.4014
      3 O          64.2451   92.7188   17.1763 O.2     1  UNL1       -0.2264
      4 N          65.2414   91.3386   15.2135 N.am    1  UNL1       -0.2714
      5 H          65.9966   91.1230   14.6200 H       1  UNL1        0.1527
      6 O          66.7010   93.1133   16.4261 O.3     1  UNL1       -0.4419
      7 C          68.5475   92.0697   16.4557 C.3     1  UNL1        0.0437
      8 C          67.8061   92.8848   15.4380 C.3     1  UNL1        0.1378
      9 C          67.0647   93.7000   14.4203 C.3     1  UNL1        0.0437
     10 C          68.9113   92.6564   14.4498 C.3     1  UNL1        0.0437
     11 C          63.1710   90.7149   13.7732 C.3     1  UNL1        0.0772
     12 S          63.9057   90.8251   12.4701 S.3     1  UNL1       -0.1380
     13 C          63.1463   90.8032   11.1767 C.3     1  UNL1        0.0672
     14 C          61.6951   90.4239   11.1654 C.3     1  UNL1        0.0967
     15 C          61.2904   89.0161   10.8427 C.2     1  UNL1        0.2236
     16 O          60.1521   88.3752   11.5799 O.2     1  UNL1       -0.2751
     17 N          62.0240   88.2490    9.7827 N.am    1  UNL1       -0.3004
     18 H          62.7711   88.6696    9.2988 H       1  UNL1        0.1497
     19 C          61.6193   86.8412    9.4600 C.3     1  UNL1        0.1179
     20 C          62.3233   85.6896   10.1146 C.ar    1  UNL1        0.0166
     21 C          63.1720   84.7647    9.2935 C.ar    1  UNL1        0.0005
     22 C          63.8759   83.6133    9.9481 C.ar    1  UNL1        0.0204
     23 C          63.7312   83.3867   11.4238 C.ar    1  UNL1        0.0989
     24 N          62.8825   84.3117   12.2449 N.ar    1  UNL1       -0.2426
     25 C          62.1786   85.4631   11.5903 C.ar    1  UNL1        0.0962
     26 C          63.3962   89.7931   16.1918 C.3     1  UNL1        0.0206
     27 C          63.5083   88.2978   16.1526 C.3     1  UNL1        0.0017
     28 C          62.8634   87.4691   17.2239 C.3     1  UNL1        0.0001
     29 C          62.9755   85.9738   17.1848 C.3     1  UNL1        0.0000
     30 C          63.7324   85.3072   16.0744 C.3     1  UNL1        0.0000
     31 C          64.3772   86.1359   15.0033 C.3     1  UNL1        0.0000
     32 C          64.2652   87.6312   15.0424 C.3     1  UNL1        0.0001
@<TRIPOS>BOND
     1     7     8    1
     2     8     9    1
     3     8    10    1
     4     8     6    1
     5     6     2    1
     6     2     3    2
     7     2     4   am
     8     4     1    1
     9     1    11    1
    10    11    12    1
    11    12    13    1
    12    13    14    1
    13    14    15    1
    14    15    16    2
    15    15    17   am
    16    17    19    1
    17    19    20    1
    18    20    21   ar
    19    21    22   ar
    20    22    23   ar
    21    23    24   ar
    22    24    25   ar
    23     1    26    1
    24    26    27    1
    25    27    28    1
    26    28    29    1
    27    29    30    1
    28    30    31    1
    29    31    32    1
    30    25    20   ar
    31    32    27    1
    32     4     5    1
    33    17    18    1
@<TRIPOS>MOLECULE
*****
 32 33 0 0 0
SMALL
GASTEIGER

@<TRIPOS>ATOM
      1 C          63.7680   85.0715   13.7404 C.3     1  UNL1        0.0855
      2 C          62.1935   86.5125   12.2589 C.2     1  UNL1        0.4014
      3 O          63.2517   87.5714   12.1643 O.2     1  UNL1       -0.2264
      4 N          62.4517   85.2625   13.0469 N.am    1  UNL1       -0.2714
      5 H          61.7571   84.5675   13.1090 H       1  UNL1        0.1527
      6 O          60.8772   86.7036   11.5655 O.3     1  UNL1       -0.4419
      7 C          61.4566   86.5595    9.5299 C.3     1  UNL1        0.0437
      8 C          60.7832   87.6042   10.3697 C.3     1  UNL1        0.1378
      9 C          60.1099   88.6489   11.2094 C.3     1  UNL1        0.0437
     10 C          60.6892   88.5049    9.1738 C.3     1  UNL1        0.0437
     11 C          64.2210   86.0588   14.7748 C.3     1  UNL1        0.0772
     12 S          63.7240   85.9480   16.1856 S.3     1  UNL1       -0.1380
     13 C          62.7092   86.9245   16.7022 C.3     1  UNL1        0.0672
     14 C          63.1505   88.2612   17.2202 C.3     1  UNL1        0.0967
     15 C          63.1828   89.4475   16.3028 C.2     1  UNL1        0.2236
     16 O          63.1951   90.8354   16.8717 O.2     1  UNL1       -0.2751
     17 N          63.2030   89.2460   14.8165 N.am    1  UNL1       -0.3004
     18 H          63.1949   88.3351   14.4431 H       1  UNL1        0.1497
     19 C          63.2353   90.4323   13.8992 C.3     1  UNL1        0.1179
     20 C          64.5432   91.0865   13.5649 C.ar    1  UNL1        0.0166
     21 C          65.7022   90.9720   14.5101 C.ar    1  UNL1        0.0005
     22 C          67.0100   91.6262   14.1759 C.ar    1  UNL1        0.0204
     23 C          67.1587   92.3949   12.8964 C.ar    1  UNL1        0.0989
     24 N          65.9997   92.5094   11.9512 N.ar    1  UNL1       -0.2426
     25 C          64.6919   91.8552   12.2855 C.ar    1  UNL1        0.0962
     26 C          64.6312   83.8931   13.3993 C.3     1  UNL1        0.0206
     27 C          64.0728   82.7657   12.5826 C.3     1  UNL1        0.0017
     28 C          63.3175   81.6564   13.2528 C.3     1  UNL1        0.0001
     29 C          62.7590   80.5290   12.4361 C.3     1  UNL1        0.0000
     30 C          62.9560   80.5108   10.9492 C.3     1  UNL1        0.0000
     31 C          63.7113   81.6200   10.2790 C.3     1  UNL1        0.0000
     32 C          64.2697   82.7474   11.0957 C.3     1  UNL1        0.0001
@<TRIPOS>BOND
     1     7     8    1
     2     8     9    1
     3     8    10    1
     4     8     6    1
     5     6     2    1
     6     2     3    2
     7     2     4   am
     8     4     1    1
     9     1    11    1
    10    11    12    1
    11    12    13    1
    12    13    14    1
    13    14    15    1
    14    15    16    2
    15    15    17   am
    16    17    19    1
    17    19    20    1
    18    20    21   ar
    19    21    22   ar
    20    22    23   ar
    21    23    24   ar
    22    24    25   ar
    23     1    26    1
    24    26    27    1
    25    27    28    1
    26    28    29    1
    27    29    30    1
    28    30    31    1
    29    31    32    1
    30    25    20   ar
    31    32    27    1
    32     4     5    1
    33    17    18    1
@<TRIPOS>MOLECULE
*****
 32 33 0 0 0
SMALL
GASTEIGER

@<TRIPOS>ATOM
      1 C          63.6831   90.3550   13.3053 C.3     1  UNL1        0.0855
      2 C          65.6301   92.0705   13.1766 C.2     1  UNL1        0.4014
      3 O          66.3436   91.3433   14.2775 O.2     1  UNL1       -0.2264
      4 N          64.2998   91.5763   12.6904 N.am    1  UNL1       -0.2714
      5 H          63.8315   92.0536   11.9678 H       1  UNL1        0.1527
      6 O          66.2468   93.2918   12.5617 O.3     1  UNL1       -0.4419
      7 C          65.7067   94.3910   10.8297 C.3     1  UNL1        0.0437
      8 C          66.6665   93.2760   11.1217 C.3     1  UNL1        0.1378
      9 C          67.6264   92.1610   11.4137 C.3     1  UNL1        0.0437
     10 C          67.0863   93.2602    9.6817 C.3     1  UNL1        0.0437
     11 C          63.3141   90.3522   14.7592 C.3     1  UNL1        0.0772
     12 S          63.7403   89.2145   15.6389 S.3     1  UNL1       -0.1380
     13 C          62.9327   88.8616   16.8527 C.3     1  UNL1        0.0672
     14 C          63.0830   87.5106   17.4868 C.3     1  UNL1        0.0967
     15 C          62.5153   86.2977   16.8113 C.2     1  UNL1        0.2236
     16 O          61.0456   86.0103   16.8971 O.2     1  UNL1       -0.2751
     17 N          63.4174   85.3720   16.0499 N.am    1  UNL1       -0.3004
     18 H          64.3820   85.5606   15.9936 H       1  UNL1        0.1497
     19 C          62.8496   84.1591   15.3744 C.3     1  UNL1        0.1179
     20 C          63.1656   83.8861   13.9336 C.ar    1  UNL1        0.0166
     21 C          62.6056   84.7736   12.8618 C.ar    1  UNL1        0.0005
     22 C          62.9216   84.5006   11.4211 C.ar    1  UNL1        0.0204
     23 C          63.7975   83.3401   11.0522 C.ar    1  UNL1        0.0989
     24 N          64.3574   82.4527   12.1240 N.ar    1  UNL1       -0.2426
     25 C          64.0415   82.7256   13.5647 C.ar    1  UNL1        0.0962
     26 C          63.4354   89.1365   12.4662 C.3     1  UNL1        0.0206
     27 C          62.3441   89.1438   11.4371 C.3     1  UNL1        0.0017
     28 C          61.2858   90.2063   11.4736 C.3     1  UNL1        0.0001
     29 C          60.1946   90.2135   10.4444 C.3     1  UNL1        0.0000
     30 C          60.1617   89.1583    9.3788 C.3     1  UNL1        0.0000
     31 C          61.2199   88.0960    9.3423 C.3     1  UNL1        0.0000
     32 C          62.3112   88.0887   10.3715 C.3     1  UNL1        0.0001
@<TRIPOS>BOND
     1     7     8    1
     2     8     9    1
     3     8    10    1
     4     8     6    1
     5     6     2    1
     6     2     3    2
     7     2     4   am
     8     4     1    1
     9     1    11    1
    10    11    12    1
    11    12    13    1
    12    13    14    1
    13    14    15    1
    14    15    16    2
    15    15    17   am
    16    17    19    1
    17    19    20    1
    18    20    21   ar
    19    21    22   ar
    20    22    23   ar
    21    23    24   ar
    22    24    25   ar
    23     1    26    1
    24    26    27    1
    25    27    28    1
    26    28    29    1
    27    29    30    1
    28    30    31    1
    29    31    32    1
    30    25    20   ar
    31    32    27    1
    32     4     5    1
    33    17    18    1
@<TRIPOS>MOLECULE
*****
 32 33 0 0 0
SMALL
GASTEIGER

@<TRIPOS>ATOM
      1 C          62.0104   86.8863   11.0969 C.3     1  UNL1        0.0855
      2 C          62.9710   84.8460   12.3871 C.2     1  UNL1        0.4014
      3 O          62.4427   83.9265   11.3263 O.2     1  UNL1       -0.2264
      4 N          62.7549   86.3260   12.2724 N.am    1  UNL1       -0.2714
      5 H          63.1016   86.9295   12.9686 H       1  UNL1        0.1527
      6 O          63.7155   84.2857   13.5625 O.3     1  UNL1       -0.4419
      7 C          62.2235   84.2022   15.0681 C.3     1  UNL1        0.0437
      8 C          63.5437   84.8988   14.9207 C.3     1  UNL1        0.1378
      9 C          64.8639   85.5953   14.7732 C.3     1  UNL1        0.0437
     10 C          63.3720   85.5119   16.2789 C.3     1  UNL1        0.0437
     11 C          60.5990   87.3665   11.2626 C.3     1  UNL1        0.0772
     12 S          60.2670   88.8115   11.0356 S.3     1  UNL1       -0.1380
     13 C          60.8308   89.8626   11.9452 C.3     1  UNL1        0.0672
     14 C          62.2791   90.2403   11.8479 C.3     1  UNL1        0.0967
     15 C          63.1774   90.0807   13.0385 C.2     1  UNL1        0.2236
     16 O          63.5767   88.7099   13.4985 O.2     1  UNL1       -0.2751
     17 N          63.6765   91.2920   13.7692 N.am    1  UNL1       -0.3004
     18 H          63.4144   92.1917   13.4674 H       1  UNL1        0.1497
     19 C          64.5747   91.1324   14.9598 C.3     1  UNL1        0.1179
     20 C          65.9404   91.7531   14.9576 C.ar    1  UNL1        0.0166
     21 C          66.3994   92.5600   16.1358 C.ar    1  UNL1        0.0005
     22 C          67.7650   93.1806   16.1335 C.ar    1  UNL1        0.0204
     23 C          68.6715   92.9942   14.9531 C.ar    1  UNL1        0.0989
     24 N          68.2125   92.1873   13.7749 N.ar    1  UNL1       -0.2426
     25 C          66.8469   91.5668   13.7772 C.ar    1  UNL1        0.0962
     26 C          62.6773   86.9665    9.7557 C.3     1  UNL1        0.0206
     27 C          62.1607   86.1461    8.6110 C.3     1  UNL1        0.0017
     28 C          63.0829   85.2182    7.8771 C.3     1  UNL1        0.0001
     29 C          62.5663   84.3979    6.7324 C.3     1  UNL1        0.0000
     30 C          61.1276   84.5055    6.3217 C.3     1  UNL1        0.0000
     31 C          60.2055   85.4334    7.0557 C.3     1  UNL1        0.0000
     32 C          60.7221   86.2537    8.2003 C.3     1  UNL1        0.0001
@<TRIPOS>BOND
     1     7     8    1
     2     8     9    1
     3     8    10    1
     4     8     6    1
     5     6     2    1
     6     2     3    2
     7     2     4   am
     8     4     1    1
     9     1    11    1
    10    11    12    1
    11    12    13    1
    12    13    14    1
    13    14    15    1
    14    15    16    2
    15    15    17   am
    16    17    19    1
    17    19    20    1
    18    20    21   ar
    19    21    22   ar
    20    22    23   ar
    21    23    24   ar
    22    24    25   ar
    23     1    26    1
    24    26    27    1
    25    27    28    1
    26    28    29    1
    27    29    30    1
    28    30    31    1
    29    31    32    1
    30    25    20   ar
    31    32    27    1
    32     4     5    1
    33    17    18    1
@<TRIPOS>MOLECULE
*****
 32 33 0 0 0
SMALL
GASTEIGER

@<TRIPOS>ATOM
      1 C          64.8117   92.0606   12.1232 C.3     1  UNL1        0.0855
      2 C          66.5492   93.5887   10.9416 C.2     1  UNL1        0.4014
      3 O          67.1510   92.3881   10.2736 O.2     1  UNL1       -0.2264
      4 N          65.3795   93.4250   11.8664 N.am    1  UNL1       -0.2714
      5 H          64.9846   94.2131   12.3048 H       1  UNL1        0.1527
      6 O          67.1170   94.9532   10.6848 O.3     1  UNL1       -0.4419
      7 C          67.5487   95.1213    8.6148 C.3     1  UNL1        0.0437
      8 C          66.5872   95.7855    9.5551 C.3     1  UNL1        0.1378
      9 C          65.6257   96.4498   10.4953 C.3     1  UNL1        0.0437
     10 C          66.0574   96.6180    8.4253 C.3     1  UNL1        0.0437
     11 C          63.8084   91.4750   11.1742 C.3     1  UNL1        0.0772
     12 S          62.7615   90.5276   11.6804 S.3     1  UNL1       -0.1380
     13 C          61.4367   90.4318   10.9833 C.3     1  UNL1        0.0672
     14 C          60.4762   89.3380   11.3452 C.3     1  UNL1        0.0967
     15 C          60.6326   87.9730   10.7433 C.2     1  UNL1        0.2236
     16 O          59.7498   87.5487    9.6072 O.2     1  UNL1       -0.2751
     17 N          61.6718   87.0324   11.2774 N.am    1  UNL1       -0.3004
     18 H          62.2512   87.3109   12.0230 H       1  UNL1        0.1497
     19 C          61.8282   85.6674   10.6755 C.3     1  UNL1        0.1179
     20 C          62.6613   84.6319   11.3711 C.ar    1  UNL1        0.0166
     21 C          63.5112   83.6909   10.5697 C.ar    1  UNL1        0.0005
     22 C          64.3443   82.6555   11.2653 C.ar    1  UNL1        0.0204
     23 C          64.3273   82.5610   12.7623 C.ar    1  UNL1        0.0989
     24 N          63.4774   83.5020   13.5636 N.ar    1  UNL1       -0.2426
     25 C          62.6444   84.5374   12.8680 C.ar    1  UNL1        0.0962
     26 C          65.2472   91.2817   13.3289 C.3     1  UNL1        0.0206
     27 C          66.3547   91.8008   14.1972 C.3     1  UNL1        0.0017
     28 C          67.7803   91.6817   13.7458 C.3     1  UNL1        0.0001
     29 C          68.8878   92.2008   14.6141 C.3     1  UNL1        0.0000
     30 C          68.5698   92.8390   15.9338 C.3     1  UNL1        0.0000
     31 C          67.1443   92.9581   16.3852 C.3     1  UNL1        0.0000
     32 C          66.0368   92.4390   15.5169 C.3     1  UNL1        0.0001
@<TRIPOS>BOND
     1     7     8    1
     2     8     9    1
     3     8    10    1
     4     8     6    1
     5     6     2    1
     6     2     3    2
     7     2     4   am
     8     4     1    1
     9     1    11    1
    10    11    12    1
    11    12    13    1
    12    13    14    1
    13    14    15    1
    14    15    16    2
    15    15    17   am
    16    17    19    1
    17    19    20    1
    18    20    21   ar
    19    21    22   ar
    20    22    23   ar
    21    23    24   ar
    22    24    25   ar
    23     1    26    1
    24    26    27    1
    25    27    28    1
    26    28    29    1
    27    29    30    1
    28    30    31    1
    29    31    32    1
    30    25    20   ar
    31    32    27    1
    32     4     5    1
    33    17    18    1
@<TRIPOS>MOLECULE
*****
 32 33 0 0 0
SMALL
GASTEIGER

@<TRIPOS>ATOM
      1 C          63.1502   84.9997   12.0675 C.3     1  UNL1        0.0855
      2 C          64.1064   86.0489   14.2435 C.2     1  UNL1        0.4014
      3 O          65.1756   84.9976   14.2806 O.2     1  UNL1       -0.2264
      4 N          63.0937   86.0500   13.1369 N.am    1  UNL1       -0.2714
      5 H          62.3919   86.7400   13.1125 H       1  UNL1        0.1527
      6 O          64.0498   87.0992   15.3129 O.3     1  UNL1       -0.4419
      7 C          63.4392   85.3607   16.3639 C.3     1  UNL1        0.0437
      8 C          63.2939   86.8376   16.5818 C.3     1  UNL1        0.1378
      9 C          63.1486   88.3145   16.7997 C.3     1  UNL1        0.0437
     10 C          62.5379   86.5761   17.8508 C.3     1  UNL1        0.0437
     11 C          62.4589   85.2269   10.7558 C.3     1  UNL1        0.0772
     12 S          61.5006   86.3704   10.6013 S.3     1  UNL1       -0.1380
     13 C          61.8232   87.4984    9.6666 C.3     1  UNL1        0.0672
     14 C          61.5720   88.9161   10.0870 C.3     1  UNL1        0.0967
     15 C          61.8365   89.3366   11.5023 C.2     1  UNL1        0.2236
     16 O          60.6901   89.6123   12.4296 O.2     1  UNL1       -0.2751
     17 N          63.2475   89.4816   11.9905 N.am    1  UNL1       -0.3004
     18 H          63.9999   89.3006   11.3819 H       1  UNL1        0.1497
     19 C          63.5120   89.9021   13.4058 C.3     1  UNL1        0.1179
     20 C          64.4735   91.0180   13.6894 C.ar    1  UNL1        0.0166
     21 C          65.0893   91.1496   15.0508 C.ar    1  UNL1        0.0005
     22 C          66.0508   92.2654   15.3343 C.ar    1  UNL1        0.0204
     23 C          66.3965   93.2496   14.2565 C.ar    1  UNL1        0.0989
     24 N          65.7808   93.1180   12.8950 N.ar    1  UNL1       -0.2426
     25 C          64.8193   92.0022   12.6115 C.ar    1  UNL1        0.0962
     26 C          63.8981   83.7222   12.3097 C.3     1  UNL1        0.0206
     27 C          63.1592   82.4915   12.7450 C.3     1  UNL1        0.0017
     28 C          62.2785   82.5354   13.9585 C.3     1  UNL1        0.0001
     29 C          61.5396   81.3047   14.3938 C.3     1  UNL1        0.0000
     30 C          61.6813   80.0302   13.6155 C.3     1  UNL1        0.0000
     31 C          62.5619   79.9864   12.4021 C.3     1  UNL1        0.0000
     32 C          63.3008   81.2171   11.9668 C.3     1  UNL1        0.0001
@<TRIPOS>BOND
     1     7     8    1
     2     8     9    1
     3     8    10    1
     4     8     6    1
     5     6     2    1
     6     2     3    2
     7     2     4   am
     8     4     1    1
     9     1    11    1
    10    11    12    1
    11    12    13    1
    12    13    14    1
    13    14    15    1
    14    15    16    2
    15    15    17   am
    16    17    19    1
    17    19    20    1
    18    20    21   ar
    19    21    22   ar
    20    22    23   ar
    21    23    24   ar
    22    24    25   ar
    23     1    26    1
    24    26    27    1
    25    27    28    1
    26    28    29    1
    27    29    30    1
    28    30    31    1
    29    31    32    1
    30    25    20   ar
    31    32    27    1
    32     4     5    1
    33    17    18    1
@<TRIPOS>MOLECULE
*****
 32 33 0 0 0
SMALL
GASTEIGER

@<TRIPOS>ATOM
      1 C          63.7440   89.9567   15.0224 C.3     1  UNL1        0.0855
      2 C          62.3746   89.3383   12.9029 C.2     1  UNL1        0.4014
      3 O          63.2865   88.1737   12.6535 O.2     1  UNL1       -0.2264
      4 N          62.6034   90.2298   14.0874 N.am    1  UNL1       -0.2714
      5 H          62.0049   90.9942   14.2511 H       1  UNL1        0.1527
      6 O          61.2339   89.6114   11.9679 O.3     1  UNL1       -0.4419
      7 C          62.1910   89.9512   10.1055 C.3     1  UNL1        0.0437
      8 C          61.1953   88.9544   10.6200 C.3     1  UNL1        0.1378
      9 C          60.1995   87.9576   11.1344 C.3     1  UNL1        0.0437
     10 C          61.1566   88.2973    9.2720 C.3     1  UNL1        0.0437
     11 C          63.4732   89.4490   16.4076 C.3     1  UNL1        0.0772
     12 S          62.4511   88.3730   16.6255 S.3     1  UNL1       -0.1380
     13 C          62.8207   87.1285   17.3770 C.3     1  UNL1        0.0672
     14 C          63.7294   86.1145   16.7478 C.3     1  UNL1        0.0967
     15 C          63.1735   85.0981   15.7950 C.2     1  UNL1        0.2236
     16 O          61.6914   84.9958   15.5882 O.2     1  UNL1       -0.2751
     17 N          64.0997   84.1840   15.0490 N.am    1  UNL1       -0.3004
     18 H          65.0725   84.2511   15.1847 H       1  UNL1        0.1497
     19 C          63.5438   83.1676   14.0962 C.3     1  UNL1        0.1179
     20 C          63.5675   83.4317   12.6198 C.ar    1  UNL1        0.0166
     21 C          62.7340   84.5370   12.0422 C.ar    1  UNL1        0.0005
     22 C          62.7577   84.8011   10.5658 C.ar    1  UNL1        0.0204
     23 C          63.6149   83.9600    9.6671 C.ar    1  UNL1        0.0989
     24 N          64.4484   82.8547   10.2447 N.ar    1  UNL1       -0.2426
     25 C          64.4247   82.5906   11.7210 C.ar    1  UNL1        0.0962
     26 C          65.1555   90.1913   14.5722 C.3     1  UNL1        0.0206
     27 C          65.5321   91.4953   13.9335 C.3     1  UNL1        0.0017
     28 C          66.2498   92.5423   14.7328 C.3     1  UNL1        0.0001
     29 C          66.6263   93.8463   14.0941 C.3     1  UNL1        0.0000
     30 C          66.2851   94.1032   12.6561 C.3     1  UNL1        0.0000
     31 C          65.5675   93.0562   11.8569 C.3     1  UNL1        0.0000
     32 C          65.1910   91.7523   12.4956 C.3     1  UNL1        0.0001
@<TRIPOS>BOND
     1     7     8    1
     2     8     9    1
     3     8    10    1
     4     8     6    1
     5     6     2    1
     6     2     3    2
     7     2     4   am
     8     4     1    1
     9     1    11    1
    10    11    12    1
    11    12    13    1
    12    13    14    1
    13    14    15    1
    14    15    16    2
    15    15    17   am
    16    17    19    1
    17    19    20    1
    18    20    21   ar
    19    21    22   ar
    20    22    23   ar
    21    23    24   ar
    22    24    25   ar
    23     1    26    1
    24    26    27    1
    25    27    28    1
    26    28    29    1
    27    29    30    1
    28    30    31    1
    29    31    32    1
    30    25    20   ar
    31    32    27    1
    32     4     5    1
    33    17    18    1
