@<TRIPOS>MOLECULE
*****
 35 39 0 0 0
SMALL
GASTEIGER

@<TRIPOS>ATOM
      1 N          72.6058   72.4678   14.2026 N.ar    1  UNL1       -0.2298
      2 N          72.7370   71.9611   15.6083 N.ar    1  UNL1       -0.1556
      3 C          72.8721   73.1465   16.5175 C.ar    1  UNL1        0.1892
      4 C          72.8243   74.3858   15.6738 C.ar    1  UNL1        0.1459
      5 N          72.9094   75.8419   16.0234 N.ar    1  UNL1       -0.2355
      6 C          72.8299   76.8786   14.9423 C.ar    1  UNL1        0.1332
      7 C          72.6653   76.4592   13.5116 C.ar    1  UNL1        0.1527
      8 N          72.5802   75.0030   13.1619 N.ar    1  UNL1       -0.2090
      9 C          72.6597   73.9663   14.2430 C.ar    1  UNL1        0.1811
     10 N          72.5858   77.4960   12.4304 N.pl3   1  UNL1       -0.2919
     11 C          73.5645   78.1046   11.4704 C.3     1  UNL1        0.0939
     12 C          72.4733   78.9623   10.9016 C.3     1  UNL1        0.0409
     13 C          71.4945   78.3537   11.8616 C.3     1  UNL1        0.0939
     14 C          72.3937   79.9990    9.8205 C.3     1  UNL1        0.0193
     15 C          72.5026   81.4543   10.1675 C.3     1  UNL1        0.0029
     16 C          72.4231   82.4911    9.0864 C.3     1  UNL1        0.0174
     17 C          72.2346   82.0727    7.6584 C.3     1  UNL1        0.0722
     18 N          72.1257   80.6175    7.3113 N.3     1  UNL1       -0.2706
     19 C          72.2053   79.5806    8.3924 C.3     1  UNL1        0.0722
     20 C          71.9373   80.1990    5.8833 C.3     1  UNL1        0.1042
     21 C          70.5574   80.1203    5.3006 C.3     1  UNL1        0.1544
     22 O          69.9556   78.7854    4.9753 O.3     1  UNL1       -0.3805
     23 H          70.4588   78.3702    4.2575 H       1  UNL1        0.2105
     24 C          73.6301   71.3613   12.0868 C.3     1  UNL1        0.0313
     25 C          72.4482   71.6242   12.9724 C.3     1  UNL1        0.1299
     26 C          71.1090   71.0433   12.6277 C.ar    1  UNL1        0.0106
     27 C          70.2415   71.7141   11.6041 C.ar    1  UNL1       -0.0007
     28 C          68.9022   71.1333   11.2593 C.ar    1  UNL1        0.0112
     29 C          68.4303   69.8817   11.9382 C.ar    1  UNL1        0.0585
     30 CL         67.0910   69.3009   11.5934 Cl      1  UNL1       -0.0822
     31 C          69.2977   69.2109   12.9617 C.ar    1  UNL1        0.0225
     32 C          70.6370   69.7917   13.3064 C.ar    1  UNL1        0.0563
     33 CL         71.5044   69.1209   14.3300 Cl      1  UNL1       -0.0825
     34 C          73.0276   73.1006   18.0087 C.1     1  UNL1        0.1232
     35 N          73.1831   73.0549   19.5000 N.1     1  UNL1       -0.1891
@<TRIPOS>BOND
     1    25    24    1
     2    25    26    1
     3    26    27   ar
     4    27    28   ar
     5    28    29   ar
     6    29    30    1
     7    29    31   ar
     8    31    32   ar
     9    32    33    1
    10    25     1    1
    11     1     2   ar
    12     2     3   ar
    13     3    34    1
    14    34    35    3
    15     3     4   ar
    16     4     5   ar
    17     5     6   ar
    18     6     7   ar
    19     7    10    1
    20    10    11    1
    21    11    12    1
    22    14    12    1
    23    14    15    1
    24    15    16    1
    25    16    17    1
    26    17    18    1
    27    18    20    1
    28    20    21    1
    29    21    22    1
    30    18    19    1
    31    12    13    1
    32     7     8   ar
    33     8     9   ar
    34    32    26   ar
    35     9     1   ar
    36     9     4   ar
    37    13    10    1
    38    19    14    1
    39    22    23    1
@<TRIPOS>MOLECULE
*****
 35 39 0 0 0
SMALL
GASTEIGER

@<TRIPOS>ATOM
      1 N          63.5179   90.4712   12.4001 N.ar    1  UNL1       -0.2298
      2 N          63.8539   91.6417   13.2759 N.ar    1  UNL1       -0.1556
      3 C          64.1771   91.1191   14.6442 C.ar    1  UNL1        0.1892
      4 C          64.0409   89.6256   14.6142 C.ar    1  UNL1        0.1459
      5 N          64.2352   88.5786   15.6706 N.ar    1  UNL1       -0.2355
      6 C          64.0220   87.1311   15.3400 C.ar    1  UNL1        0.1332
      7 C          63.6145   86.7307   13.9530 C.ar    1  UNL1        0.1527
      8 N          63.4202   87.7777   12.8967 N.ar    1  UNL1       -0.2090
      9 C          63.6334   89.2252   13.2272 C.ar    1  UNL1        0.1811
     10 N          63.4014   85.2831   13.6225 N.pl3   1  UNL1       -0.2919
     11 C          64.0854   83.9995   13.9891 C.3     1  UNL1        0.0939
     12 C          63.0998   83.2360   13.1550 C.3     1  UNL1        0.0409
     13 C          62.4158   84.5196   12.7884 C.3     1  UNL1        0.0939
     14 C          62.8866   81.7886   12.8244 C.3     1  UNL1        0.0193
     15 C          62.5707   80.8087   13.9154 C.3     1  UNL1        0.0029
     16 C          62.3575   79.3612   13.5849 C.3     1  UNL1        0.0174
     17 C          62.4602   78.8935   12.1634 C.3     1  UNL1        0.0722
     18 N          62.7762   79.8733   11.0724 N.3     1  UNL1       -0.2706
     19 C          62.9894   81.3208   11.4029 C.3     1  UNL1        0.0722
     20 C          62.8789   79.4055    9.6509 C.3     1  UNL1        0.1042
     21 C          63.7094   78.2023    9.3154 C.3     1  UNL1        0.1544
     22 O          63.5097   76.9199   10.0674 O.3     1  UNL1       -0.3805
     23 H          63.7705   77.0440   10.9934 H       1  UNL1        0.2105
     24 C          63.6448   91.6510   10.0888 C.3     1  UNL1        0.0313
     25 C          63.1337   90.5354   10.9516 C.3     1  UNL1        0.1299
     26 C          62.2385   89.4841   10.3657 C.ar    1  UNL1        0.0106
     27 C          62.8330   88.2680    9.7192 C.ar    1  UNL1       -0.0007
     28 C          61.9379   87.2166    9.1333 C.ar    1  UNL1        0.0112
     29 C          60.4481   87.3813    9.1939 C.ar    1  UNL1        0.0585
     30 CL         59.5530   86.3299    8.6080 Cl      1  UNL1       -0.0822
     31 C          59.8537   88.5973    9.8404 C.ar    1  UNL1        0.0225
     32 C          60.7488   89.6486   10.4263 C.ar    1  UNL1        0.0563
     33 CL         60.1542   90.8646   11.0727 Cl      1  UNL1       -0.0825
     34 C          64.5680   91.9450   15.8338 C.1     1  UNL1        0.1232
     35 N          64.9590   92.7709   17.0234 N.1     1  UNL1       -0.1891
@<TRIPOS>BOND
     1    25    24    1
     2    25    26    1
     3    26    27   ar
     4    27    28   ar
     5    28    29   ar
     6    29    30    1
     7    29    31   ar
     8    31    32   ar
     9    32    33    1
    10    25     1    1
    11     1     2   ar
    12     2     3   ar
    13     3    34    1
    14    34    35    3
    15     3     4   ar
    16     4     5   ar
    17     5     6   ar
    18     6     7   ar
    19     7    10    1
    20    10    11    1
    21    11    12    1
    22    14    12    1
    23    14    15    1
    24    15    16    1
    25    16    17    1
    26    17    18    1
    27    18    20    1
    28    20    21    1
    29    21    22    1
    30    18    19    1
    31    12    13    1
    32     7     8   ar
    33     8     9   ar
    34    32    26   ar
    35     9     1   ar
    36     9     4   ar
    37    13    10    1
    38    19    14    1
    39    22    23    1
@<TRIPOS>MOLECULE
*****
 35 39 0 0 0
SMALL
GASTEIGER

@<TRIPOS>ATOM
      1 N          63.7709   88.3159   13.8308 N.ar    1  UNL1       -0.2298
      2 N          64.2560   87.1279   14.6077 N.ar    1  UNL1       -0.1556
      3 C          63.8407   85.8902   13.8692 C.ar    1  UNL1        0.1892
      4 C          63.0989   86.3131   12.6359 C.ar    1  UNL1        0.1459
      5 N          62.4572   85.5267   11.5315 N.ar    1  UNL1       -0.2355
      6 C          61.7723   86.2396   10.4033 C.ar    1  UNL1        0.1332
      7 C          61.7292   87.7388   10.3796 C.ar    1  UNL1        0.1527
      8 N          62.3710   88.5251   11.4840 N.ar    1  UNL1       -0.2090
      9 C          63.0558   87.8123   12.6122 C.ar    1  UNL1        0.1811
     10 N          61.0443   88.4517    9.2514 N.pl3   1  UNL1       -0.2919
     11 C          60.7567   89.8866    8.9223 C.3     1  UNL1        0.0939
     12 C          60.0757   89.4597    7.6559 C.3     1  UNL1        0.0409
     13 C          60.3633   88.0248    7.9849 C.3     1  UNL1        0.0939
     14 C          59.3908   90.1725    6.5277 C.3     1  UNL1        0.0193
     15 C          57.8977   90.1103    6.3976 C.3     1  UNL1        0.0029
     16 C          57.2128   90.8231    5.2694 C.3     1  UNL1        0.0174
     17 C          58.0210   91.5980    4.2713 C.3     1  UNL1        0.0722
     18 N          59.5140   91.6603    4.4013 N.3     1  UNL1       -0.2706
     19 C          60.1990   90.9475    5.5295 C.3     1  UNL1        0.0722
     20 C          60.3222   92.4353    3.4032 C.3     1  UNL1        0.1042
     21 C          59.6395   93.1282    2.2614 C.3     1  UNL1        0.1544
     22 O          59.3483   92.3786    0.9952 O.3     1  UNL1       -0.3805
     23 H          60.1826   92.1374    0.5631 H       1  UNL1        0.2105
     24 C          63.6005   90.2272   15.5824 C.3     1  UNL1        0.0313
     25 C          63.9666   89.7548   14.2065 C.3     1  UNL1        0.1299
     26 C          64.5284   90.7214   13.2066 C.ar    1  UNL1        0.0106
     27 C          63.7834   91.0032   11.9354 C.ar    1  UNL1       -0.0007
     28 C          64.3451   91.9698   10.9354 C.ar    1  UNL1        0.0112
     29 C          65.6519   92.6547   11.2065 C.ar    1  UNL1        0.0585
     30 CL         66.2136   93.6214   10.2065 Cl      1  UNL1       -0.0822
     31 C          66.3967   92.3730   12.4776 C.ar    1  UNL1        0.0225
     32 C          65.8350   91.4064   13.4776 C.ar    1  UNL1        0.0563
     33 CL         66.5800   91.1247   14.7487 Cl      1  UNL1       -0.0825
     34 C          64.1184   84.4774   14.2900 C.1     1  UNL1        0.1232
     35 N          64.3961   83.0647   14.7109 N.1     1  UNL1       -0.1891
@<TRIPOS>BOND
     1    25    24    1
     2    25    26    1
     3    26    27   ar
     4    27    28   ar
     5    28    29   ar
     6    29    30    1
     7    29    31   ar
     8    31    32   ar
     9    32    33    1
    10    25     1    1
    11     1     2   ar
    12     2     3   ar
    13     3    34    1
    14    34    35    3
    15     3     4   ar
    16     4     5   ar
    17     5     6   ar
    18     6     7   ar
    19     7    10    1
    20    10    11    1
    21    11    12    1
    22    14    12    1
    23    14    15    1
    24    15    16    1
    25    16    17    1
    26    17    18    1
    27    18    20    1
    28    20    21    1
    29    21    22    1
    30    18    19    1
    31    12    13    1
    32     7     8   ar
    33     8     9   ar
    34    32    26   ar
    35     9     1   ar
    36     9     4   ar
    37    13    10    1
    38    19    14    1
    39    22    23    1
@<TRIPOS>MOLECULE
*****
 35 39 0 0 0
SMALL
GASTEIGER

@<TRIPOS>ATOM
      1 N          63.6221   86.0973   14.9716 N.ar    1  UNL1       -0.2298
      2 N          63.0865   85.6973   16.3144 N.ar    1  UNL1       -0.1556
      3 C          63.0172   86.9269   17.1707 C.ar    1  UNL1        0.1892
      4 C          63.5099   88.0868   16.3572 C.ar    1  UNL1        0.1459
      5 N          63.6664   89.5436   16.6784 N.ar    1  UNL1       -0.2355
      6 C          64.1968   90.4877   15.6405 C.ar    1  UNL1        0.1332
      7 C          64.5706   89.9750   14.2813 C.ar    1  UNL1        0.1527
      8 N          64.4141   88.5182   13.9600 N.ar    1  UNL1       -0.2090
      9 C          63.8837   87.5741   14.9980 C.ar    1  UNL1        0.1811
     10 N          65.1009   90.9191   13.2433 N.pl3   1  UNL1       -0.2919
     11 C          66.3866   91.6666   13.0472 C.3     1  UNL1        0.0939
     12 C          65.8509   92.2544   11.7754 C.3     1  UNL1        0.0409
     13 C          64.5653   91.5069   11.9714 C.3     1  UNL1        0.0939
     14 C          66.3812   93.1985   10.7374 C.3     1  UNL1        0.0193
     15 C          67.6333   92.8589    9.9844 C.3     1  UNL1        0.0029
     16 C          68.1636   93.8031    8.9465 C.3     1  UNL1        0.0174
     17 C          67.4418   95.0867    8.6614 C.3     1  UNL1        0.0722
     18 N          66.1898   95.4263    9.4144 N.3     1  UNL1       -0.2706
     19 C          65.6594   94.4821   10.4524 C.3     1  UNL1        0.0722
     20 C          65.4680   96.7099    9.1294 C.3     1  UNL1        0.1042
     21 C          64.6662   96.8559    7.8701 C.3     1  UNL1        0.1544
     22 O          65.2838   96.5215    6.5447 O.3     1  UNL1       -0.3805
     23 H          66.0000   97.1475    6.3546 H       1  UNL1        0.2105
     24 C          64.8113   84.0328   13.9353 C.3     1  UNL1        0.0313
     25 C          63.8550   85.1814   13.8067 C.3     1  UNL1        0.1299
     26 C          63.1319   85.4139   12.5134 C.ar    1  UNL1        0.0106
     27 C          62.0945   86.4932   12.4176 C.ar    1  UNL1       -0.0007
     28 C          61.3712   86.7258   11.1242 C.ar    1  UNL1        0.0112
     29 C          61.6854   85.8790    9.9266 C.ar    1  UNL1        0.0585
     30 CL         60.9621   86.1115    8.6332 Cl      1  UNL1       -0.0822
     31 C          62.7227   84.7997   10.0223 C.ar    1  UNL1        0.0225
     32 C          63.4459   84.5672   11.3157 C.ar    1  UNL1        0.0563
     33 CL         64.4832   83.4879   11.4114 Cl      1  UNL1       -0.0825
     34 C          62.5392   86.9862   18.5913 C.1     1  UNL1        0.1232
     35 N          62.0611   87.0455   20.0119 N.1     1  UNL1       -0.1891
@<TRIPOS>BOND
     1    25    24    1
     2    25    26    1
     3    26    27   ar
     4    27    28   ar
     5    28    29   ar
     6    29    30    1
     7    29    31   ar
     8    31    32   ar
     9    32    33    1
    10    25     1    1
    11     1     2   ar
    12     2     3   ar
    13     3    34    1
    14    34    35    3
    15     3     4   ar
    16     4     5   ar
    17     5     6   ar
    18     6     7   ar
    19     7    10    1
    20    10    11    1
    21    11    12    1
    22    14    12    1
    23    14    15    1
    24    15    16    1
    25    16    17    1
    26    17    18    1
    27    18    20    1
    28    20    21    1
    29    21    22    1
    30    18    19    1
    31    12    13    1
    32     7     8   ar
    33     8     9   ar
    34    32    26   ar
    35     9     1   ar
    36     9     4   ar
    37    13    10    1
    38    19    14    1
    39    22    23    1
@<TRIPOS>MOLECULE
*****
 35 39 0 0 0
SMALL
GASTEIGER

@<TRIPOS>ATOM
      1 N          63.6833   86.4983   15.1166 N.ar    1  UNL1       -0.2298
      2 N          63.1717   85.9825   16.4289 N.ar    1  UNL1       -0.1556
      3 C          63.0401   87.1470   17.3651 C.ar    1  UNL1        0.1892
      4 C          63.4703   88.3826   16.6314 C.ar    1  UNL1        0.1459
      5 N          63.5514   89.8209   17.0492 N.ar    1  UNL1       -0.2355
      6 C          64.0301   90.8583   16.0773 C.ar    1  UNL1        0.1332
      7 C          64.4277   90.4574   14.6877 C.ar    1  UNL1        0.1527
      8 N          64.3466   89.0190   14.2699 N.ar    1  UNL1       -0.2090
      9 C          63.8679   87.9816   15.2418 C.ar    1  UNL1        0.1811
     10 N          64.9064   91.4949   13.7157 N.pl3   1  UNL1       -0.2919
     11 C          65.9705   92.5519   13.7312 C.3     1  UNL1        0.0939
     12 C          65.5833   92.9620   12.3412 C.3     1  UNL1        0.0409
     13 C          64.5192   91.9050   12.3258 C.3     1  UNL1        0.0939
     14 C          66.0619   93.9994   11.3694 C.3     1  UNL1        0.0193
     15 C          65.7681   95.4497   11.6152 C.3     1  UNL1        0.0029
     16 C          66.2467   96.4872   10.6433 C.3     1  UNL1        0.0174
     17 C          67.0192   96.0744    9.4256 C.3     1  UNL1        0.0722
     18 N          67.3131   94.6242    9.1797 N.3     1  UNL1       -0.2706
     19 C          66.8345   93.5866   10.1517 C.3     1  UNL1        0.0722
     20 C          68.0856   94.2114    7.9620 C.3     1  UNL1        0.1042
     21 C          68.8500   92.9208    7.9606 C.3     1  UNL1        0.1544
     22 O          69.4791   92.4202    9.2269 O.3     1  UNL1       -0.3805
     23 H          70.1855   93.0269    9.4988 H       1  UNL1        0.2105
     24 C          65.0234   84.6163   13.9281 C.3     1  UNL1        0.0313
     25 C          63.9615   85.6753   13.8938 C.3     1  UNL1        0.1299
     26 C          63.1780   85.9112   12.6367 C.ar    1  UNL1        0.0106
     27 C          63.0062   87.3054   12.1105 C.ar    1  UNL1       -0.0007
     28 C          62.2227   87.5413   10.8533 C.ar    1  UNL1        0.0112
     29 C          61.6109   86.3830   10.1224 C.ar    1  UNL1        0.0585
     30 CL         60.8274   86.6190    8.8653 Cl      1  UNL1       -0.0822
     31 C          61.7827   84.9889   10.6486 C.ar    1  UNL1        0.0225
     32 C          62.5663   84.7530   11.9057 C.ar    1  UNL1        0.0563
     33 CL         62.7380   83.3588   12.4319 Cl      1  UNL1       -0.0825
     34 C          62.5621   87.0866   18.7856 C.1     1  UNL1        0.1232
     35 N          62.0841   87.0261   20.2062 N.1     1  UNL1       -0.1891
@<TRIPOS>BOND
     1    25    24    1
     2    25    26    1
     3    26    27   ar
     4    27    28   ar
     5    28    29   ar
     6    29    30    1
     7    29    31   ar
     8    31    32   ar
     9    32    33    1
    10    25     1    1
    11     1     2   ar
    12     2     3   ar
    13     3    34    1
    14    34    35    3
    15     3     4   ar
    16     4     5   ar
    17     5     6   ar
    18     6     7   ar
    19     7    10    1
    20    10    11    1
    21    11    12    1
    22    14    12    1
    23    14    15    1
    24    15    16    1
    25    16    17    1
    26    17    18    1
    27    18    20    1
    28    20    21    1
    29    21    22    1
    30    18    19    1
    31    12    13    1
    32     7     8   ar
    33     8     9   ar
    34    32    26   ar
    35     9     1   ar
    36     9     4   ar
    37    13    10    1
    38    19    14    1
    39    22    23    1
@<TRIPOS>MOLECULE
*****
 35 39 0 0 0
SMALL
GASTEIGER

@<TRIPOS>ATOM
      1 N          61.6922   86.4908   11.6485 N.ar    1  UNL1       -0.2298
      2 N          61.6051   85.2411   12.4735 N.ar    1  UNL1       -0.1556
      3 C          62.5503   85.3822   13.6297 C.ar    1  UNL1        0.1892
      4 C          63.2215   86.7191   13.5192 C.ar    1  UNL1        0.1459
      5 N          64.2471   87.4011   14.3754 N.ar    1  UNL1       -0.2355
      6 C          64.7423   88.7682   14.0071 C.ar    1  UNL1        0.1332
      7 C          64.2120   89.4534   12.7826 C.ar    1  UNL1        0.1527
      8 N          63.1864   88.7714   11.9265 N.ar    1  UNL1       -0.2090
      9 C          62.6912   87.4043   12.2948 C.ar    1  UNL1        0.1811
     10 N          64.7073   90.8206   12.4144 N.pl3   1  UNL1       -0.2919
     11 C          65.6681   91.7997   13.0211 C.3     1  UNL1        0.0939
     12 C          65.4076   92.7540   11.8935 C.3     1  UNL1        0.0409
     13 C          64.4468   91.7748   11.2867 C.3     1  UNL1        0.0939
     14 C          65.9028   94.1211   11.5252 C.3     1  UNL1        0.0193
     15 C          66.0458   95.1768   12.5813 C.3     1  UNL1        0.0029
     16 C          66.5410   96.5439   12.2130 C.3     1  UNL1        0.0174
     17 C          66.8933   96.8554   10.7886 C.3     1  UNL1        0.0722
     18 N          66.7504   95.7999    9.7325 N.3     1  UNL1       -0.2706
     19 C          66.2552   94.4327   10.1008 C.3     1  UNL1        0.0722
     20 C          67.1027   96.1114    8.3082 C.3     1  UNL1        0.1042
     21 C          66.0508   96.6255    7.3706 C.3     1  UNL1        0.1544
     22 O          64.6524   96.8521    7.8638 O.3     1  UNL1       -0.3805
     23 H          64.2530   96.0017    8.1054 H       1  UNL1        0.2105
     24 C          59.7603   87.7319   10.4329 C.3     1  UNL1        0.0313
     25 C          60.9165   86.7768   10.3969 C.3     1  UNL1        0.1299
     26 C          61.2968   86.1079    9.1094 C.ar    1  UNL1        0.0106
     27 C          62.6520   85.4820    8.9611 C.ar    1  UNL1       -0.0007
     28 C          63.0324   84.8131    7.6736 C.ar    1  UNL1        0.0112
     29 C          62.0576   84.7700    6.5343 C.ar    1  UNL1        0.0585
     30 CL         62.4380   84.1011    5.2467 Cl      1  UNL1       -0.0822
     31 C          60.7025   85.3959    6.6825 C.ar    1  UNL1        0.0225
     32 C          60.3221   86.0648    7.9701 C.ar    1  UNL1        0.0563
     33 CL         58.9670   86.6906    8.1183 Cl      1  UNL1       -0.0825
     34 C          62.7834   84.3650   14.7072 C.1     1  UNL1        0.1232
     35 N          63.0166   83.3478   15.7847 N.1     1  UNL1       -0.1891
@<TRIPOS>BOND
     1    25    24    1
     2    25    26    1
     3    26    27   ar
     4    27    28   ar
     5    28    29   ar
     6    29    30    1
     7    29    31   ar
     8    31    32   ar
     9    32    33    1
    10    25     1    1
    11     1     2   ar
    12     2     3   ar
    13     3    34    1
    14    34    35    3
    15     3     4   ar
    16     4     5   ar
    17     5     6   ar
    18     6     7   ar
    19     7    10    1
    20    10    11    1
    21    11    12    1
    22    14    12    1
    23    14    15    1
    24    15    16    1
    25    16    17    1
    26    17    18    1
    27    18    20    1
    28    20    21    1
    29    21    22    1
    30    18    19    1
    31    12    13    1
    32     7     8   ar
    33     8     9   ar
    34    32    26   ar
    35     9     1   ar
    36     9     4   ar
    37    13    10    1
    38    19    14    1
    39    22    23    1
@<TRIPOS>MOLECULE
*****
 35 39 0 0 0
SMALL
GASTEIGER

@<TRIPOS>ATOM
      1 N          63.6763   90.6759   12.2585 N.ar    1  UNL1       -0.2298
      2 N          64.1741   91.8294   13.0779 N.ar    1  UNL1       -0.1556
      3 C          64.6249   91.2949   14.4049 C.ar    1  UNL1        0.1892
      4 C          64.4058   89.8110   14.4056 C.ar    1  UNL1        0.1459
      5 N          64.6643   88.7587   15.4428 N.ar    1  UNL1       -0.2355
      6 C          64.3366   87.3239   15.1534 C.ar    1  UNL1        0.1332
      7 C          63.7503   86.9413   13.8268 C.ar    1  UNL1        0.1527
      8 N          63.4918   87.9936   12.7896 N.ar    1  UNL1       -0.2090
      9 C          63.8195   89.4284   13.0790 C.ar    1  UNL1        0.1811
     10 N          63.4226   85.5064   13.5374 N.pl3   1  UNL1       -0.2919
     11 C          63.5780   84.2123   14.2799 C.3     1  UNL1        0.0939
     12 C          62.9591   83.4772   13.1281 C.3     1  UNL1        0.0409
     13 C          62.8037   84.7712   12.3857 C.3     1  UNL1        0.0939
     14 C          62.6314   82.0423   12.8387 C.3     1  UNL1        0.0193
     15 C          63.2410   81.3586   11.6509 C.3     1  UNL1        0.0029
     16 C          62.9133   79.9238   11.3615 C.3     1  UNL1        0.0174
     17 C          61.9760   79.1726   12.2599 C.3     1  UNL1        0.0722
     18 N          61.3664   79.8562   13.4477 N.3     1  UNL1       -0.2706
     19 C          61.6941   81.2912   13.7372 C.3     1  UNL1        0.0722
     20 C          60.4290   79.1051   14.3461 C.3     1  UNL1        0.1042
     21 C          58.9501   79.3355   14.2480 C.3     1  UNL1        0.1544
     22 O          58.2336   80.0814   15.3344 O.3     1  UNL1       -0.3805
     23 H          58.2633   79.5649   16.1550 H       1  UNL1        0.2105
     24 C          63.5236   91.8940    9.9686 C.3     1  UNL1        0.0313
     25 C          63.1310   90.7557   10.8633 C.3     1  UNL1        0.1299
     26 C          62.1933   89.6975   10.3628 C.ar    1  UNL1        0.0106
     27 C          62.7366   88.4668    9.6993 C.ar    1  UNL1       -0.0007
     28 C          61.7989   87.4084    9.1987 C.ar    1  UNL1        0.0112
     29 C          60.3177   87.5808    9.3617 C.ar    1  UNL1        0.0585
     30 CL         59.3800   86.5224    8.8612 Cl      1  UNL1       -0.0822
     31 C          59.7744   88.8114   10.0252 C.ar    1  UNL1        0.0225
     32 C          60.7122   89.8697   10.5258 C.ar    1  UNL1        0.0563
     33 CL         60.1687   91.1004   11.1893 Cl      1  UNL1       -0.0825
     34 C          65.1948   92.1025   15.5332 C.1     1  UNL1        0.1232
     35 N          65.7648   92.9100   16.6615 N.1     1  UNL1       -0.1891
@<TRIPOS>BOND
     1    25    24    1
     2    25    26    1
     3    26    27   ar
     4    27    28   ar
     5    28    29   ar
     6    29    30    1
     7    29    31   ar
     8    31    32   ar
     9    32    33    1
    10    25     1    1
    11     1     2   ar
    12     2     3   ar
    13     3    34    1
    14    34    35    3
    15     3     4   ar
    16     4     5   ar
    17     5     6   ar
    18     6     7   ar
    19     7    10    1
    20    10    11    1
    21    11    12    1
    22    14    12    1
    23    14    15    1
    24    15    16    1
    25    16    17    1
    26    17    18    1
    27    18    20    1
    28    20    21    1
    29    21    22    1
    30    18    19    1
    31    12    13    1
    32     7     8   ar
    33     8     9   ar
    34    32    26   ar
    35     9     1   ar
    36     9     4   ar
    37    13    10    1
    38    19    14    1
    39    22    23    1
@<TRIPOS>MOLECULE
*****
 35 39 0 0 0
SMALL
GASTEIGER

@<TRIPOS>ATOM
      1 N          62.5887   84.1883   11.1725 N.ar    1  UNL1       -0.2298
      2 N          62.0892   82.8601   11.6586 N.ar    1  UNL1       -0.1556
      3 C          62.1713   82.8540   13.1563 C.ar    1  UNL1        0.1892
      4 C          62.7214   84.1784   13.5959 C.ar    1  UNL1        0.1459
      5 N          63.0208   84.7400   14.9541 N.ar    1  UNL1       -0.2355
      6 C          63.5782   86.1263   15.0863 C.ar    1  UNL1        0.1332
      7 C          63.8362   86.9509   13.8602 C.ar    1  UNL1        0.1527
      8 N          63.5368   86.3893   12.5019 N.ar    1  UNL1       -0.2090
      9 C          62.9795   85.0031   12.3697 C.ar    1  UNL1        0.1811
     10 N          64.3936   88.3373   13.9924 N.pl3   1  UNL1       -0.2919
     11 C          65.3608   89.0074   14.9227 C.3     1  UNL1        0.0939
     12 C          65.1819   90.2978   14.1793 C.3     1  UNL1        0.0409
     13 C          64.2147   89.6278   13.2490 C.3     1  UNL1        0.0939
     14 C          65.7392   91.6841   14.3115 C.3     1  UNL1        0.0193
     15 C          66.3452   92.1282   15.6098 C.3     1  UNL1        0.0029
     16 C          66.9026   93.5145   15.7420 C.3     1  UNL1        0.0174
     17 C          66.8540   94.4568   14.5759 C.3     1  UNL1        0.0722
     18 N          66.2481   94.0127   13.2776 N.3     1  UNL1       -0.2706
     19 C          65.6906   92.6264   13.1454 C.3     1  UNL1        0.0722
     20 C          66.1995   94.9550   12.1115 C.3     1  UNL1        0.1042
     21 C          66.3689   94.4309   10.7163 C.3     1  UNL1        0.1544
     22 O          67.7267   94.4202   10.0788 O.3     1  UNL1       -0.3805
     23 H          68.0294   95.3324    9.9475 H       1  UNL1        0.2105
     24 C          63.7699   84.0856    8.8606 C.3     1  UNL1        0.0313
     25 C          62.6813   84.6251    9.7405 C.3     1  UNL1        0.1299
     26 C          61.6853   85.6013    9.1882 C.ar    1  UNL1        0.0106
     27 C          61.0239   86.5937   10.0981 C.ar    1  UNL1       -0.0007
     28 C          60.0280   87.5700    9.5459 C.ar    1  UNL1        0.0112
     29 C          59.6933   87.5538    8.0837 C.ar    1  UNL1        0.0585
     30 CL         58.6973   88.5300    7.5315 Cl      1  UNL1       -0.0822
     31 C          60.3547   86.5614    7.1739 C.ar    1  UNL1        0.0225
     32 C          61.3506   85.5852    7.7261 C.ar    1  UNL1        0.0563
     33 CL         62.0119   84.5929    6.8162 Cl      1  UNL1       -0.0825
     34 C          61.7730   81.7221   14.0565 C.1     1  UNL1        0.1232
     35 N          61.3747   80.5903   14.9567 N.1     1  UNL1       -0.1891
@<TRIPOS>BOND
     1    25    24    1
     2    25    26    1
     3    26    27   ar
     4    27    28   ar
     5    28    29   ar
     6    29    30    1
     7    29    31   ar
     8    31    32   ar
     9    32    33    1
    10    25     1    1
    11     1     2   ar
    12     2     3   ar
    13     3    34    1
    14    34    35    3
    15     3     4   ar
    16     4     5   ar
    17     5     6   ar
    18     6     7   ar
    19     7    10    1
    20    10    11    1
    21    11    12    1
    22    14    12    1
    23    14    15    1
    24    15    16    1
    25    16    17    1
    26    17    18    1
    27    18    20    1
    28    20    21    1
    29    21    22    1
    30    18    19    1
    31    12    13    1
    32     7     8   ar
    33     8     9   ar
    34    32    26   ar
    35     9     1   ar
    36     9     4   ar
    37    13    10    1
    38    19    14    1
    39    22    23    1
@<TRIPOS>MOLECULE
*****
 35 39 0 0 0
SMALL
GASTEIGER

@<TRIPOS>ATOM
      1 N          62.6953   84.0544    9.8969 N.ar    1  UNL1       -0.2298
      2 N          62.5275   82.5639    9.8895 N.ar    1  UNL1       -0.1556
      3 C          62.8033   82.0596   11.2750 C.ar    1  UNL1        0.1892
      4 C          63.1414   83.2384   12.1387 C.ar    1  UNL1        0.1459
      5 N          63.5014   83.3485   13.5906 N.ar    1  UNL1       -0.2355
      6 C          63.7948   84.6915   14.1908 C.ar    1  UNL1        0.1332
      7 C          63.7280   85.9244   13.3391 C.ar    1  UNL1        0.1527
      8 N          63.3680   85.8143   11.8871 N.ar    1  UNL1       -0.2090
      9 C          63.0747   84.4713   11.2869 C.ar    1  UNL1        0.1811
     10 N          64.0214   87.2674   13.9394 N.pl3   1  UNL1       -0.2919
     11 C          64.5632   87.7464   15.2535 C.3     1  UNL1        0.0939
     12 C          64.4362   89.1668   14.7882 C.3     1  UNL1        0.0409
     13 C          63.8943   88.6878   13.4741 C.3     1  UNL1        0.0939
     14 C          64.7295   90.5097   15.3884 C.3     1  UNL1        0.0193
     15 C          63.8181   91.0787   16.4352 C.3     1  UNL1        0.0029
     16 C          64.1114   92.4217   17.0354 C.3     1  UNL1        0.0174
     17 C          65.3161   93.1958   16.5889 C.3     1  UNL1        0.0722
     18 N          66.2275   92.6269   15.5422 N.3     1  UNL1       -0.2706
     19 C          65.9342   91.2839   14.9419 C.3     1  UNL1        0.0722
     20 C          67.4322   93.4011   15.0957 C.3     1  UNL1        0.1042
     21 C          68.7879   92.7597   15.1221 C.3     1  UNL1        0.1544
     22 O          69.2974   92.0329   13.9129 O.3     1  UNL1       -0.3805
     23 H          68.7499   91.2484   13.7526 H       1  UNL1        0.2105
     24 C          62.9875   84.5427    7.3618 C.3     1  UNL1        0.0313
     25 C          62.5153   84.9678    8.7207 C.3     1  UNL1        0.1299
     26 C          61.8631   86.3061    8.9032 C.ar    1  UNL1        0.0106
     27 C          62.5367   87.3625    9.7282 C.ar    1  UNL1       -0.0007
     28 C          61.8845   88.7009    9.9108 C.ar    1  UNL1        0.0112
     29 C          60.5587   88.9829    9.2684 C.ar    1  UNL1        0.0585
     30 CL         59.9065   90.3213    9.4510 Cl      1  UNL1       -0.0822
     31 C          59.8851   87.9267    8.4435 C.ar    1  UNL1        0.0225
     32 C          60.5373   86.5883    8.2609 C.ar    1  UNL1        0.0563
     33 CL         59.8636   85.5320    7.4360 Cl      1  UNL1       -0.0825
     34 C          62.7501   80.6277   11.7189 C.1     1  UNL1        0.1232
     35 N          62.6970   79.1959   12.1628 N.1     1  UNL1       -0.1891
@<TRIPOS>BOND
     1    25    24    1
     2    25    26    1
     3    26    27   ar
     4    27    28   ar
     5    28    29   ar
     6    29    30    1
     7    29    31   ar
     8    31    32   ar
     9    32    33    1
    10    25     1    1
    11     1     2   ar
    12     2     3   ar
    13     3    34    1
    14    34    35    3
    15     3     4   ar
    16     4     5   ar
    17     5     6   ar
    18     6     7   ar
    19     7    10    1
    20    10    11    1
    21    11    12    1
    22    14    12    1
    23    14    15    1
    24    15    16    1
    25    16    17    1
    26    17    18    1
    27    18    20    1
    28    20    21    1
    29    21    22    1
    30    18    19    1
    31    12    13    1
    32     7     8   ar
    33     8     9   ar
    34    32    26   ar
    35     9     1   ar
    36     9     4   ar
    37    13    10    1
    38    19    14    1
    39    22    23    1
