@<TRIPOS>MOLECULE
*****
 39 42 0 0 0
SMALL
GASTEIGER

@<TRIPOS>ATOM
      1 N          64.2045   90.8887   12.5894 N.ar    1  UNL1       -0.2399
      2 C          64.4229   89.6554   13.4147 C.ar    1  UNL1        0.2819
      3 O          65.2628   89.7224   14.6557 O.2     1  UNL1       -0.2652
      4 C          63.8015   88.3550   12.9990 C.ar    1  UNL1        0.1349
      5 C          62.9615   88.2880   11.7580 C.ar    1  UNL1        0.0966
      6 C          62.4807   86.8760   11.5994 C.ar    1  UNL1        0.1156
      7 C          63.0234   86.0704   12.7424 C.ar    1  UNL1        0.1240
      8 N          63.8397   86.9845   13.6074 N.ar    1  UNL1       -0.3063
      9 N          62.7431   89.5213   10.9327 N.ar    1  UNL1       -0.2770
     10 C          61.9031   89.4544    9.6917 C.3     1  UNL1        0.1351
     11 C          63.3646   90.8217   11.3485 C.ar    1  UNL1        0.3343
     12 O          63.1461   92.0551   10.5231 O.2     1  UNL1       -0.2462
     13 N          62.7907   84.6076   12.9789 N.pl3   1  UNL1       -0.2926
     14 C          62.2741   84.1352   14.3055 C.3     1  UNL1        0.0922
     15 C          62.0415   82.6723   14.5419 C.3     1  UNL1        0.0229
     16 C          62.3254   81.6818   13.4518 C.3     1  UNL1        0.0190
     17 C          62.8421   82.1542   12.1252 C.3     1  UNL1        0.0709
     18 N          63.1261   81.1639   11.0350 N.3     1  UNL1       -0.3208
     19 C          63.0747   83.6171   11.8888 C.3     1  UNL1        0.1075
     20 H          63.4678   81.6557   10.2094 H       1  UNL1        0.1189
     21 H          62.2701   80.6609   10.8011 H       1  UNL1        0.1189
     22 C          61.6100   86.3603   10.4922 C.1     1  UNL1        0.1047
     23 N          60.7392   85.8445    9.3850 N.1     1  UNL1       -0.1907
     24 C          64.8260   92.1891   13.0051 C.3     1  UNL1        0.1826
     25 C          66.2881   92.4298   12.7723 C.2     1  UNL1        0.1961
     26 O          67.2808   92.1201   13.8534 O.2     1  UNL1       -0.2893
     27 C          66.7401   94.8694    9.6749 C.ar    1  UNL1        0.1388
     28 C          67.6968   94.0811    8.8304 C.ar    1  UNL1        0.0369
     29 C          68.1839   92.7424    9.2998 C.ar    1  UNL1        0.0032
     30 C          67.7145   92.1919   10.6138 C.ar    1  UNL1        0.0031
     31 C          66.7577   92.9802   11.4583 C.ar    1  UNL1        0.0397
     32 C          66.2705   94.3190   10.9889 C.ar    1  UNL1        0.0398
     33 C          66.8793   96.8559    8.0063 C.3     1  UNL1        0.2525
     34 O          66.2529   96.2082    9.2054 O.3     1  UNL1       -0.4714
     35 C          64.5666   86.5961   14.8607 C.3     1  UNL1        0.1332
     36 C          63.8005   86.0817   16.0432 C.2     1  UNL1       -0.0102
     37 C          63.1185   87.0431   16.9711 C.2     1  UNL1       -0.0460
     38 C          62.3524   86.5286   18.1536 C.3     1  UNL1        0.0261
     39 C          63.2028   88.5188   16.7163 C.3     1  UNL1        0.0261
@<TRIPOS>BOND
     1    33    34    1
     2    34    27    1
     3    27    28   ar
     4    28    29   ar
     5    29    30   ar
     6    30    31   ar
     7    31    25    1
     8    25    26    2
     9    25    24    1
    10    24     1    1
    11     1     2   ar
    12     2     3    2
    13     2     4   ar
    14     4     5   ar
    15     5     6   ar
    16     6    22    1
    17    22    23    3
    18     6     7   ar
    19     7    13    1
    20    13    14    1
    21    14    15    1
    22    15    16    1
    23    16    17    1
    24    17    18    1
    25    17    19    1
    26     7     8   ar
    27     8    35    1
    28    35    36    1
    29    36    37    2
    30    37    38    1
    31    37    39    1
    32     5     9   ar
    33     9    10    1
    34     9    11   ar
    35    11    12    2
    36    31    32   ar
    37    32    27   ar
    38    11     1   ar
    39     8     4   ar
    40    19    13    1
    41    18    20    1
    42    18    21    1
@<TRIPOS>MOLECULE
*****
 39 42 0 0 0
SMALL
GASTEIGER

@<TRIPOS>ATOM
      1 N          61.7424   88.1496   11.0648 N.ar    1  UNL1       -0.2399
      2 C          62.6071   88.1463   12.2904 C.ar    1  UNL1        0.2819
      3 O          62.5609   86.9844   13.2379 O.2     1  UNL1       -0.2652
      4 C          63.5181   89.3051   12.5685 C.ar    1  UNL1        0.1349
      5 C          63.5644   90.4671   11.6210 C.ar    1  UNL1        0.0966
      6 C          64.5537   91.4607   12.1539 C.ar    1  UNL1        0.1156
      7 C          65.1189   90.9128   13.4308 C.ar    1  UNL1        0.1240
      8 N          64.4789   89.5806   13.6870 N.ar    1  UNL1       -0.3063
      9 N          62.6996   90.4703   10.3954 N.ar    1  UNL1       -0.2770
     10 C          62.7458   91.6322    9.4479 C.3     1  UNL1        0.1351
     11 C          61.7886   89.3114   10.1173 C.ar    1  UNL1        0.3343
     12 O          60.9238   89.3146    8.8916 O.2     1  UNL1       -0.2462
     13 N          66.1441   91.5799   14.2990 N.pl3   1  UNL1       -0.2926
     14 C          65.7482   92.1373   15.6341 C.3     1  UNL1        0.0922
     15 C          66.7735   92.8044   16.5023 C.3     1  UNL1        0.0229
     16 C          68.1947   92.9142   16.0353 C.3     1  UNL1        0.0190
     17 C          68.5907   92.3569   14.7002 C.3     1  UNL1        0.0709
     18 N          70.0119   92.4667   14.2332 N.3     1  UNL1       -0.3208
     19 C          67.5654   91.6898   13.8321 C.3     1  UNL1        0.1075
     20 H          70.1011   92.0384   13.3118 H       1  UNL1        0.1189
     21 H          70.6244   91.9862   14.8923 H       1  UNL1        0.1189
     22 C          64.9145   92.7719   11.5211 C.1     1  UNL1        0.1047
     23 N          65.2752   94.0831   10.8882 N.1     1  UNL1       -0.1907
     24 C          60.8314   86.9907   10.7867 C.3     1  UNL1        0.1826
     25 C          61.2800   85.8855    9.8772 C.2     1  UNL1        0.1961
     26 O          60.6983   85.7647    8.4998 O.2     1  UNL1       -0.2893
     27 C          63.3923   83.5137   12.2569 C.ar    1  UNL1        0.1388
     28 C          64.3714   82.9320   11.2807 C.ar    1  UNL1        0.0369
     29 C          64.3201   83.3347    9.8368 C.ar    1  UNL1        0.0032
     30 C          63.2897   84.3192    9.3688 C.ar    1  UNL1        0.0031
     31 C          62.3105   84.9010   10.3450 C.ar    1  UNL1        0.0397
     32 C          62.3618   84.4982   11.7891 C.ar    1  UNL1        0.0398
     33 C          62.2142   82.5781   14.3751 C.3     1  UNL1        0.2525
     34 O          63.4436   83.1109   13.7009 O.3     1  UNL1       -0.4714
     35 C          64.7518   88.6817   14.8564 C.3     1  UNL1        0.1332
     36 C          63.7278   88.5319   15.9422 C.2     1  UNL1       -0.0102
     37 C          63.4251   87.1751   16.5057 C.2     1  UNL1       -0.0460
     38 C          62.4010   87.0254   17.5916 C.3     1  UNL1        0.0261
     39 C          64.1464   85.9681   15.9835 C.3     1  UNL1        0.0261
@<TRIPOS>BOND
     1    33    34    1
     2    34    27    1
     3    27    28   ar
     4    28    29   ar
     5    29    30   ar
     6    30    31   ar
     7    31    25    1
     8    25    26    2
     9    25    24    1
    10    24     1    1
    11     1     2   ar
    12     2     3    2
    13     2     4   ar
    14     4     5   ar
    15     5     6   ar
    16     6    22    1
    17    22    23    3
    18     6     7   ar
    19     7    13    1
    20    13    14    1
    21    14    15    1
    22    15    16    1
    23    16    17    1
    24    17    18    1
    25    17    19    1
    26     7     8   ar
    27     8    35    1
    28    35    36    1
    29    36    37    2
    30    37    38    1
    31    37    39    1
    32     5     9   ar
    33     9    10    1
    34     9    11   ar
    35    11    12    2
    36    31    32   ar
    37    32    27   ar
    38    11     1   ar
    39     8     4   ar
    40    19    13    1
    41    18    20    1
    42    18    21    1
@<TRIPOS>MOLECULE
*****
 39 42 0 0 0
SMALL
GASTEIGER

@<TRIPOS>ATOM
      1 N          62.9747   89.4084   12.5306 N.ar    1  UNL1       -0.2399
      2 C          62.6711   88.3061   11.5596 C.ar    1  UNL1        0.2819
      3 O          62.1467   88.6339   10.1929 O.2     1  UNL1       -0.2652
      4 C          62.8919   86.8762   11.9552 C.ar    1  UNL1        0.1349
      5 C          63.4162   86.5485   13.3218 C.ar    1  UNL1        0.0966
      6 C          63.5328   85.0568   13.4282 C.ar    1  UNL1        0.1156
      7 C          63.0805   84.4626   12.1273 C.ar    1  UNL1        0.1240
      8 N          62.6844   85.5870   11.2169 N.ar    1  UNL1       -0.3063
      9 N          63.7199   87.6507   14.2928 N.ar    1  UNL1       -0.2770
     10 C          64.2442   87.3231   15.6595 C.3     1  UNL1        0.1351
     11 C          63.4991   89.0807   13.8971 C.ar    1  UNL1        0.3343
     12 O          63.8027   90.1830   14.8682 O.2     1  UNL1       -0.2462
     13 N          63.0326   83.0007   11.7951 N.pl3   1  UNL1       -0.2926
     14 C          63.5102   82.5196   10.4570 C.3     1  UNL1        0.0922
     15 C          63.4624   81.0576   10.1248 C.3     1  UNL1        0.0229
     16 C          62.9369   80.0767   11.1307 C.3     1  UNL1        0.0190
     17 C          62.4594   80.5577   12.4688 C.3     1  UNL1        0.0709
     18 N          61.9340   79.5769   13.4747 N.3     1  UNL1       -0.3208
     19 C          62.5072   82.0198   12.8009 C.3     1  UNL1        0.1075
     20 H          61.6558   80.0738   14.3209 H       1  UNL1        0.1189
     21 H          62.6622   78.8998   13.7018 H       1  UNL1        0.1189
     22 C          64.0167   84.2934   14.6253 C.1     1  UNL1        0.1047
     23 N          64.5007   83.5300   15.8224 N.1     1  UNL1       -0.1907
     24 C          62.7539   90.8384   12.1349 C.3     1  UNL1        0.1826
     25 C          63.6314   91.4734   11.0973 C.2     1  UNL1        0.1961
     26 O          63.1455   91.6083    9.6845 O.2     1  UNL1       -0.2893
     27 C          67.2767   93.0120   10.7905 C.ar    1  UNL1        0.1388
     28 C          67.7219   92.9740   12.2224 C.ar    1  UNL1        0.0369
     29 C          66.8036   92.4358   13.2792 C.ar    1  UNL1        0.0032
     30 C          65.4401   91.9356   12.9043 C.ar    1  UNL1        0.0031
     31 C          64.9949   91.9736   11.4723 C.ar    1  UNL1        0.0397
     32 C          65.9133   92.5118   10.4154 C.ar    1  UNL1        0.0398
     33 C          67.7650   94.7111    8.8866 C.3     1  UNL1        0.2525
     34 O          68.1951   93.5503    9.7336 O.3     1  UNL1       -0.4714
     35 C          62.1709   85.4469    9.8145 C.3     1  UNL1        0.1332
     36 C          60.8792   86.0996    9.4201 C.2     1  UNL1       -0.0102
     37 C          60.3990   86.0156    8.0014 C.2     1  UNL1       -0.0460
     38 C          59.1073   86.6684    7.6070 C.3     1  UNL1        0.0261
     39 C          61.2105   85.2789    6.9774 C.3     1  UNL1        0.0261
@<TRIPOS>BOND
     1    33    34    1
     2    34    27    1
     3    27    28   ar
     4    28    29   ar
     5    29    30   ar
     6    30    31   ar
     7    31    25    1
     8    25    26    2
     9    25    24    1
    10    24     1    1
    11     1     2   ar
    12     2     3    2
    13     2     4   ar
    14     4     5   ar
    15     5     6   ar
    16     6    22    1
    17    22    23    3
    18     6     7   ar
    19     7    13    1
    20    13    14    1
    21    14    15    1
    22    15    16    1
    23    16    17    1
    24    17    18    1
    25    17    19    1
    26     7     8   ar
    27     8    35    1
    28    35    36    1
    29    36    37    2
    30    37    38    1
    31    37    39    1
    32     5     9   ar
    33     9    10    1
    34     9    11   ar
    35    11    12    2
    36    31    32   ar
    37    32    27   ar
    38    11     1   ar
    39     8     4   ar
    40    19    13    1
    41    18    20    1
    42    18    21    1
@<TRIPOS>MOLECULE
*****
 39 42 0 0 0
SMALL
GASTEIGER

@<TRIPOS>ATOM
      1 N          57.6888   96.4010   -3.6992 N.ar    1  UNL1       -0.2399
      2 C          58.2189   96.3784   -2.2962 C.ar    1  UNL1        0.2819
      3 O          57.2957   96.6319   -1.1414 O.2     1  UNL1       -0.2652
      4 C          59.6722   96.1024   -2.0479 C.ar    1  UNL1        0.1349
      5 C          60.5954   95.8490   -3.2027 C.ar    1  UNL1        0.0966
      6 C          61.9698   95.6067   -2.6528 C.ar    1  UNL1        0.1156
      7 C          61.8960   95.7104   -1.1583 C.ar    1  UNL1        0.1240
      8 N          60.4760   96.0168   -0.7844 N.ar    1  UNL1       -0.3063
      9 N          60.0654   95.8715   -4.6057 N.ar    1  UNL1       -0.2770
     10 C          60.9885   95.6181   -5.7605 C.3     1  UNL1        0.1351
     11 C          58.6120   96.1476   -4.8539 C.ar    1  UNL1        0.3343
     12 O          58.0818   96.1702   -6.2570 O.2     1  UNL1       -0.2462
     13 N          63.0412   95.5380   -0.2049 N.pl3   1  UNL1       -0.2926
     14 C          63.4141   96.6514    0.7285 C.3     1  UNL1        0.0922
     15 C          64.5593   96.4789    1.6819 C.3     1  UNL1        0.0229
     16 C          65.3315   95.1931    1.7019 C.3     1  UNL1        0.0190
     17 C          64.9585   94.0797    0.7685 C.3     1  UNL1        0.0709
     18 N          65.7306   92.7939    0.7885 N.3     1  UNL1       -0.3208
     19 C          63.8133   94.2522   -0.1849 C.3     1  UNL1        0.1075
     20 H          65.3437   92.1541    0.0946 H       1  UNL1        0.1189
     21 H          65.6641   92.3717    1.7146 H       1  UNL1        0.1189
     22 C          63.2017   95.3123   -3.4565 C.1     1  UNL1        0.1047
     23 N          64.4336   95.0180   -4.2601 N.1     1  UNL1       -0.1907
     24 C          56.2354   96.6770   -3.9474 C.3     1  UNL1        0.1826
     25 C          55.2129   95.6142   -3.6741 C.2     1  UNL1        0.1961
     26 O          53.7721   95.9889   -3.4904 O.2     1  UNL1       -0.2893
     27 C          56.4376   91.9918   -4.7365 C.ar    1  UNL1        0.1388
     28 C          56.4675   91.3010   -3.4054 C.ar    1  UNL1        0.0369
     29 C          56.0792   92.0478   -2.1640 C.ar    1  UNL1        0.0032
     30 C          55.6610   93.4856   -2.2534 C.ar    1  UNL1        0.0031
     31 C          55.6311   94.1765   -3.5846 C.ar    1  UNL1        0.0397
     32 C          56.0194   93.4296   -4.8261 C.ar    1  UNL1        0.0398
     33 C          57.3921   91.9860   -7.1529 C.3     1  UNL1        0.2525
     34 O          56.8259   91.2450   -5.9781 O.3     1  UNL1       -0.4714
     35 C          59.9519   96.2045    0.6085 C.3     1  UNL1        0.1332
     36 C          60.2629   95.1911    1.6697 C.2     1  UNL1       -0.0102
     37 C          59.7531   93.7865    1.5379 C.2     1  UNL1       -0.0460
     38 C          60.0641   92.7731    2.5992 C.3     1  UNL1        0.0261
     39 C          58.9324   93.3954    0.3449 C.3     1  UNL1        0.0261
@<TRIPOS>BOND
     1    33    34    1
     2    34    27    1
     3    27    28   ar
     4    28    29   ar
     5    29    30   ar
     6    30    31   ar
     7    31    25    1
     8    25    26    2
     9    25    24    1
    10    24     1    1
    11     1     2   ar
    12     2     3    2
    13     2     4   ar
    14     4     5   ar
    15     5     6   ar
    16     6    22    1
    17    22    23    3
    18     6     7   ar
    19     7    13    1
    20    13    14    1
    21    14    15    1
    22    15    16    1
    23    16    17    1
    24    17    18    1
    25    17    19    1
    26     7     8   ar
    27     8    35    1
    28    35    36    1
    29    36    37    2
    30    37    38    1
    31    37    39    1
    32     5     9   ar
    33     9    10    1
    34     9    11   ar
    35    11    12    2
    36    31    32   ar
    37    32    27   ar
    38    11     1   ar
    39     8     4   ar
    40    19    13    1
    41    18    20    1
    42    18    21    1
