@<TRIPOS>MOLECULE
*****
 42 44 0 0 0
SMALL
GASTEIGER

@<TRIPOS>ATOM
      1 C          61.8707   86.1830    9.8202 C.3     1  UNL1        0.0920
      2 C          60.7426   85.9727    8.8542 C.3     1  UNL1        0.2582
      3 S          59.7465   87.0682    8.6142 S.O     1  UNL1        0.0319
      4 O          58.6185   86.8579    7.6482 O.co2   1  UNL1       -0.6812
      5 C          59.8786   88.3742    9.3402 C.3     1  UNL1        0.2736
      6 C          61.0066   88.5845   10.3062 C.3     1  UNL1        0.1416
      7 C          62.0027   87.4890   10.5462 C.3     1  UNL1        0.1353
      8 O          63.1308   87.6994   11.5123 O.3     1  UNL1       -0.3827
      9 H          63.0698   88.5900   11.8916 H       1  UNL1        0.2104
     10 N          61.1387   89.8905   11.0323 N.3     1  UNL1       -0.2874
     11 H          61.4982   89.6753   11.9623 H       1  UNL1        0.1238
     12 C          62.0097   90.9755   10.4717 C.3     1  UNL1        0.1153
     13 C          63.2761   91.3603   11.1774 C.ar    1  UNL1        0.0746
     14 C          64.2997   92.2025   10.4753 C.ar    1  UNL1        0.0118
     15 C          65.5662   92.5873   11.1810 C.ar    1  UNL1       -0.0200
     16 C          65.8090   92.1300   12.5889 C.ar    1  UNL1        0.0164
     17 C          64.7853   91.2879   13.2910 C.ar    1  UNL1        0.0982
     18 N          63.5188   90.9031   12.5852 N.ar    1  UNL1       -0.2468
     19 C          66.5898   93.4295   10.4789 C.3     1  UNL1        0.0190
     20 C          67.4537   92.2185   10.2860 C.3     1  UNL1        0.0044
     21 C          65.7259   94.6404   10.6719 C.3     1  UNL1        0.0044
     22 C          67.6135   94.2716    9.7769 C.3     1  UNL1        0.0044
     23 C          62.8667   85.0875   10.0603 C.3     1  UNL1        0.0342
     24 C          62.4089   83.9268   13.8277 C.ar    1  UNL1        0.1535
     25 C          62.5420   84.8106   12.6231 C.ar    1  UNL1        0.0341
     26 C          62.7336   84.2035   11.2649 C.ar    1  UNL1       -0.0166
     27 C          62.7922   82.7126   11.1112 C.ar    1  UNL1        0.0268
     28 C          62.6592   81.8287   12.3158 C.ar    1  UNL1        0.1556
     29 F          62.7177   80.3377   12.1622 F       1  UNL1       -0.2028
     30 C          62.4675   82.4358   13.6740 C.ar    1  UNL1        0.1037
     31 N          62.3344   81.5519   14.8786 N.pl3   1  UNL1       -0.3529
     32 H          62.3729   80.5733   14.7778 H       1  UNL1        0.1425
     33 H          62.2086   81.9503   15.7701 H       1  UNL1        0.1425
     34 O          62.2173   84.5338   15.1859 O.3     1  UNL1       -0.4665
     35 C          63.3272   85.3186   15.8200 C.3     1  UNL1        0.2891
     36 C          64.7039   85.2857   15.2252 C.3     1  UNL1        0.4366
     37 F          66.0805   85.2529   14.6304 F       1  UNL1       -0.1663
     38 F          64.8465   83.8497   15.6346 F       1  UNL1       -0.1663
     39 F          64.5613   86.7217   14.8159 F       1  UNL1       -0.1663
     40 C          63.0605   86.1362   17.0490 C.3     1  UNL1        0.1945
     41 C          63.0795   88.7330   16.9695 C.3     1  UNL1        0.1743
     42 O          62.3234   87.4379   16.9384 O.3     1  UNL1       -0.3469
@<TRIPOS>UNITY_ATOM_ATTR
3 1
charge 1
4 1
charge -1
@<TRIPOS>BOND
     1    41    42    1
     2    42    40    1
     3    35    40    1
     4    35    34    1
     5    34    24    1
     6    24    25   ar
     7    25    26   ar
     8    26    23    1
     9     1    23    1
    10     1     2    1
    11     2     3    1
    12     3     4    2
    13     3     5    1
    14     5     6    1
    15     6    10    1
    16    10    12    1
    17    12    13    1
    18    13    14   ar
    19    14    15   ar
    20    15    19    1
    21    19    20    1
    22    19    21    1
    23    19    22    1
    24    15    16   ar
    25    16    17   ar
    26    17    18   ar
    27     6     7    1
    28     7     8    1
    29    26    27   ar
    30    27    28   ar
    31    28    29    1
    32    28    30   ar
    33    30    31    1
    34    35    36    1
    35    36    37    1
    36    36    38    1
    37    36    39    1
    38    30    24   ar
    39     7     1    1
    40    18    13   ar
    41    10    11    1
    42     8     9    1
    43    31    32    1
    44    31    33    1
@<TRIPOS>MOLECULE
*****
 42 44 0 0 0
SMALL
GASTEIGER

@<TRIPOS>ATOM
      1 C          61.7692   90.0786   10.6524 C.3     1  UNL1        0.0920
      2 C          60.5731   90.4303   11.4866 C.3     1  UNL1        0.2582
      3 S          59.5538   89.3804   11.8163 S.O     1  UNL1        0.0319
      4 O          58.3577   89.7320   12.6504 O.co2   1  UNL1       -0.6812
      5 C          59.7306   87.9788   11.3119 C.3     1  UNL1        0.2736
      6 C          60.9267   87.6272   10.4778 C.3     1  UNL1        0.1416
      7 C          61.9460   88.6771   10.1481 C.3     1  UNL1        0.1353
      8 O          63.1421   88.3254    9.3139 O.3     1  UNL1       -0.3827
      9 H          63.1033   87.3867    9.0727 H       1  UNL1        0.2104
     10 N          61.1035   86.2256    9.9734 N.3     1  UNL1       -0.2874
     11 H          60.9855   86.2600    8.9608 H       1  UNL1        0.1238
     12 C          62.3844   85.4903   10.2353 C.3     1  UNL1        0.1153
     13 C          62.5983   84.8016   11.5506 C.ar    1  UNL1        0.0746
     14 C          62.4161   83.3165   11.6580 C.ar    1  UNL1        0.0118
     15 C          62.6301   82.6278   12.9732 C.ar    1  UNL1       -0.0200
     16 C          63.0262   83.4241   14.1811 C.ar    1  UNL1        0.0164
     17 C          63.2085   84.9092   14.0737 C.ar    1  UNL1        0.0982
     18 N          62.9945   85.5979   12.7584 N.ar    1  UNL1       -0.2468
     19 C          62.4478   81.1428   13.0806 C.3     1  UNL1        0.0190
     20 C          63.1535   80.9614   11.7694 C.3     1  UNL1        0.0044
     21 C          61.7421   81.3242   14.3917 C.3     1  UNL1        0.0044
     22 C          62.2656   79.6578   13.1880 C.3     1  UNL1        0.0044
     23 C          62.7885   91.1285   10.3227 C.3     1  UNL1        0.0342
     24 C          66.1376   92.6183   11.8440 C.ar    1  UNL1        0.1535
     25 C          65.0316   92.3167   10.8766 C.ar    1  UNL1        0.0341
     26 C          63.8945   91.4302   11.2902 C.ar    1  UNL1       -0.0166
     27 C          63.8633   90.8453   12.6710 C.ar    1  UNL1        0.0268
     28 C          64.9692   91.1469   13.6384 C.ar    1  UNL1        0.1556
     29 F          64.9381   90.5620   15.0194 F       1  UNL1       -0.2028
     30 C          66.1064   92.0334   13.2249 C.ar    1  UNL1        0.1037
     31 N          67.2124   92.3350   14.1924 N.pl3   1  UNL1       -0.3529
     32 H          67.1919   91.9511   15.0987 H       1  UNL1        0.1425
     33 H          67.9587   92.9169   13.9210 H       1  UNL1        0.1425
     34 O          67.2747   93.5048   11.4305 O.3     1  UNL1       -0.4665
     35 C          67.4568   93.8666    9.9862 C.3     1  UNL1        0.2891
     36 C          68.2857   92.9922    9.0927 C.3     1  UNL1        0.4366
     37 F          69.1145   92.1178    8.1991 F       1  UNL1       -0.1663
     38 F          68.6704   92.1505   10.2731 F       1  UNL1       -0.1663
     39 F          67.9009   93.8338    7.9122 F       1  UNL1       -0.1663
     40 C          66.8100   95.1029    9.4355 C.3     1  UNL1        0.1945
     41 C          66.0158   96.7230   11.3048 C.3     1  UNL1        0.1743
     42 O          66.9398   96.4064   10.1664 O.3     1  UNL1       -0.3469
@<TRIPOS>UNITY_ATOM_ATTR
3 1
charge 1
4 1
charge -1
@<TRIPOS>BOND
     1    41    42    1
     2    42    40    1
     3    35    40    1
     4    35    34    1
     5    34    24    1
     6    24    25   ar
     7    25    26   ar
     8    26    23    1
     9     1    23    1
    10     1     2    1
    11     2     3    1
    12     3     4    2
    13     3     5    1
    14     5     6    1
    15     6    10    1
    16    10    12    1
    17    12    13    1
    18    13    14   ar
    19    14    15   ar
    20    15    19    1
    21    19    20    1
    22    19    21    1
    23    19    22    1
    24    15    16   ar
    25    16    17   ar
    26    17    18   ar
    27     6     7    1
    28     7     8    1
    29    26    27   ar
    30    27    28   ar
    31    28    29    1
    32    28    30   ar
    33    30    31    1
    34    35    36    1
    35    36    37    1
    36    36    38    1
    37    36    39    1
    38    30    24   ar
    39     7     1    1
    40    18    13   ar
    41    10    11    1
    42     8     9    1
    43    31    32    1
    44    31    33    1
@<TRIPOS>MOLECULE
*****
 42 44 0 0 0
SMALL
GASTEIGER

@<TRIPOS>ATOM
      1 C          61.3923   89.4435   10.6221 C.3     1  UNL1        0.0920
      2 C          60.3788   89.7134    9.5497 C.3     1  UNL1        0.2582
      3 S          60.0927   88.6717    8.5090 S.O     1  UNL1        0.0319
      4 O          59.0792   88.9415    7.4366 O.co2   1  UNL1       -0.6812
      5 C          60.8201   87.3602    8.5407 C.3     1  UNL1        0.2736
      6 C          61.8335   87.0904    9.6131 C.3     1  UNL1        0.1416
      7 C          62.1196   88.1321   10.6538 C.3     1  UNL1        0.1353
      8 O          63.1332   87.8622   11.7262 O.3     1  UNL1       -0.3827
      9 H          63.5069   86.9758   11.6022 H       1  UNL1        0.2104
     10 N          62.5609   85.7789    9.6448 N.3     1  UNL1       -0.2874
     11 H          63.4979   85.9704    9.9993 H       1  UNL1        0.1238
     12 C          62.0166   84.6388   10.4535 C.3     1  UNL1        0.1153
     13 C          62.7666   84.1467   11.6557 C.ar    1  UNL1        0.0746
     14 C          62.7505   84.9423   12.9272 C.ar    1  UNL1        0.0118
     15 C          63.5005   84.4502   14.1294 C.ar    1  UNL1       -0.0200
     16 C          64.2666   83.1624   14.0601 C.ar    1  UNL1        0.0164
     17 C          64.2827   82.3668   12.7885 C.ar    1  UNL1        0.0982
     18 N          63.5327   82.8590   11.5863 N.ar    1  UNL1       -0.2468
     19 C          63.4844   85.2458   15.4009 C.3     1  UNL1        0.0190
     20 C          64.6241   86.0789   14.8940 C.3     1  UNL1        0.0044
     21 C          62.3447   84.4126   15.9078 C.3     1  UNL1        0.0044
     22 C          63.4683   86.0414   16.6724 C.3     1  UNL1        0.0044
     23 C          61.6784   90.4852   11.6628 C.3     1  UNL1        0.0342
     24 C          65.2003   91.3221   13.2894 C.ar    1  UNL1        0.1535
     25 C          63.8068   90.7936   13.1206 C.ar    1  UNL1        0.0341
     26 C          63.0721   91.0138   11.8315 C.ar    1  UNL1       -0.0166
     27 C          63.7310   91.7626   10.7112 C.ar    1  UNL1        0.0268
     28 C          65.1246   92.2911   10.8800 C.ar    1  UNL1        0.1556
     29 F          65.7835   93.0399    9.7597 F       1  UNL1       -0.2028
     30 C          65.8592   92.0709   12.1691 C.ar    1  UNL1        0.1037
     31 N          67.2529   92.5995   12.3378 N.pl3   1  UNL1       -0.3529
     32 H          67.6853   93.0910   11.6025 H       1  UNL1        0.1425
     33 H          67.7351   92.4550   13.1839 H       1  UNL1        0.1425
     34 O          65.9350   91.1019   14.5785 O.3     1  UNL1       -0.4665
     35 C          65.9605   92.1802   15.6209 C.3     1  UNL1        0.2891
     36 C          67.1334   93.1111   15.7086 C.3     1  UNL1        0.4366
     37 F          68.3063   94.0420   15.7963 F       1  UNL1       -0.1663
     38 F          67.8104   92.1686   16.6591 F       1  UNL1       -0.1663
     39 F          66.4565   94.0535   14.7581 F       1  UNL1       -0.1663
     40 C          64.8130   92.3276   16.5757 C.3     1  UNL1        0.1945
     41 C          63.3759   90.1642   16.6443 C.3     1  UNL1        0.1743
     42 O          63.5184   91.6189   16.3075 O.3     1  UNL1       -0.3469
@<TRIPOS>UNITY_ATOM_ATTR
3 1
charge 1
4 1
charge -1
@<TRIPOS>BOND
     1    41    42    1
     2    42    40    1
     3    35    40    1
     4    35    34    1
     5    34    24    1
     6    24    25   ar
     7    25    26   ar
     8    26    23    1
     9     1    23    1
    10     1     2    1
    11     2     3    1
    12     3     4    2
    13     3     5    1
    14     5     6    1
    15     6    10    1
    16    10    12    1
    17    12    13    1
    18    13    14   ar
    19    14    15   ar
    20    15    19    1
    21    19    20    1
    22    19    21    1
    23    19    22    1
    24    15    16   ar
    25    16    17   ar
    26    17    18   ar
    27     6     7    1
    28     7     8    1
    29    26    27   ar
    30    27    28   ar
    31    28    29    1
    32    28    30   ar
    33    30    31    1
    34    35    36    1
    35    36    37    1
    36    36    38    1
    37    36    39    1
    38    30    24   ar
    39     7     1    1
    40    18    13   ar
    41    10    11    1
    42     8     9    1
    43    31    32    1
    44    31    33    1
@<TRIPOS>MOLECULE
*****
 42 44 0 0 0
SMALL
GASTEIGER

@<TRIPOS>ATOM
      1 C          61.2801   89.6112   10.6880 C.3     1  UNL1        0.0920
      2 C          60.4776   89.8835    9.4503 C.3     1  UNL1        0.2582
      3 S          60.1299   88.7598    8.5195 S.O     1  UNL1        0.0319
      4 O          59.3274   89.0321    7.2819 O.co2   1  UNL1       -0.6812
      5 C          60.5847   87.3637    8.8265 C.3     1  UNL1        0.2736
      6 C          61.3871   87.0914   10.0642 C.3     1  UNL1        0.1416
      7 C          61.7349   88.2151   10.9949 C.3     1  UNL1        0.1353
      8 O          62.5374   87.9427   12.2326 O.3     1  UNL1       -0.3827
      9 H          62.7480   86.9971   12.2798 H       1  UNL1        0.2104
     10 N          61.8419   85.6953   10.3711 N.3     1  UNL1       -0.2874
     11 H          62.0582   85.2530    9.4778 H       1  UNL1        0.1238
     12 C          63.0268   85.4716   11.2633 C.3     1  UNL1        0.1153
     13 C          62.8726   84.6870   12.5323 C.ar    1  UNL1        0.0746
     14 C          62.6860   83.1997   12.4766 C.ar    1  UNL1        0.0118
     15 C          62.5318   82.4151   13.7457 C.ar    1  UNL1       -0.0200
     16 C          62.5643   83.1178   15.0706 C.ar    1  UNL1        0.0164
     17 C          62.7510   84.6051   15.1263 C.ar    1  UNL1        0.0982
     18 N          62.9052   85.3897   13.8571 N.ar    1  UNL1       -0.2468
     19 C          62.3451   80.9278   13.6899 C.3     1  UNL1        0.0190
     20 C          63.7824   80.7622   13.2938 C.3     1  UNL1        0.0044
     21 C          60.9079   81.0934   14.0861 C.3     1  UNL1        0.0044
     22 C          62.1584   79.4405   13.6342 C.3     1  UNL1        0.0044
     23 C          61.6279   90.7349   11.6188 C.3     1  UNL1        0.0342
     24 C          65.1982   91.3277   13.2472 C.ar    1  UNL1        0.1535
     25 C          63.7682   90.9062   13.0816 C.ar    1  UNL1        0.0341
     26 C          63.0579   91.1564   11.7843 C.ar    1  UNL1       -0.0166
     27 C          63.7777   91.8280   10.6526 C.ar    1  UNL1        0.0268
     28 C          65.2076   92.2495   10.8181 C.ar    1  UNL1        0.1556
     29 F          65.9275   92.9211    9.6864 F       1  UNL1       -0.2028
     30 C          65.9179   91.9993   12.1154 C.ar    1  UNL1        0.1037
     31 N          67.3480   92.4208   12.2810 N.pl3   1  UNL1       -0.3529
     32 H          67.8204   92.8616   11.5382 H       1  UNL1        0.1425
     33 H          67.8142   92.2566   13.1324 H       1  UNL1        0.1425
     34 O          65.9084   91.0775   14.5444 O.3     1  UNL1       -0.4665
     35 C          65.9433   92.1443   15.5983 C.3     1  UNL1        0.2891
     36 C          67.1043   93.0915   15.6686 C.3     1  UNL1        0.4366
     37 F          68.2653   94.0386   15.7390 F       1  UNL1       -0.1663
     38 F          66.4127   94.0108   14.7062 F       1  UNL1       -0.1663
     39 F          67.7959   92.1721   16.6311 F       1  UNL1       -0.1663
     40 C          64.8171   92.2640   16.5819 C.3     1  UNL1        0.1945
     41 C          63.3707   90.1058   16.6047 C.3     1  UNL1        0.1743
     42 O          63.5133   91.5711   16.3171 O.3     1  UNL1       -0.3469
@<TRIPOS>UNITY_ATOM_ATTR
3 1
charge 1
4 1
charge -1
@<TRIPOS>BOND
     1    41    42    1
     2    42    40    1
     3    35    40    1
     4    35    34    1
     5    34    24    1
     6    24    25   ar
     7    25    26   ar
     8    26    23    1
     9     1    23    1
    10     1     2    1
    11     2     3    1
    12     3     4    2
    13     3     5    1
    14     5     6    1
    15     6    10    1
    16    10    12    1
    17    12    13    1
    18    13    14   ar
    19    14    15   ar
    20    15    19    1
    21    19    20    1
    22    19    21    1
    23    19    22    1
    24    15    16   ar
    25    16    17   ar
    26    17    18   ar
    27     6     7    1
    28     7     8    1
    29    26    27   ar
    30    27    28   ar
    31    28    29    1
    32    28    30   ar
    33    30    31    1
    34    35    36    1
    35    36    37    1
    36    36    38    1
    37    36    39    1
    38    30    24   ar
    39     7     1    1
    40    18    13   ar
    41    10    11    1
    42     8     9    1
    43    31    32    1
    44    31    33    1
@<TRIPOS>MOLECULE
*****
 42 44 0 0 0
SMALL
GASTEIGER

@<TRIPOS>ATOM
      1 C          60.9754   87.7143   10.3995 C.3     1  UNL1        0.0920
      2 C          59.7681   87.8545   11.2787 C.3     1  UNL1        0.2582
      3 S          59.4087   89.1935   11.8513 S.O     1  UNL1        0.0319
      4 O          58.2014   89.3337   12.7304 O.co2   1  UNL1       -0.6812
      5 C          60.2567   90.3923   11.5449 C.3     1  UNL1        0.2736
      6 C          61.4639   90.2521   10.6658 C.3     1  UNL1        0.1416
      7 C          61.8233   88.9131   10.0931 C.3     1  UNL1        0.1353
      8 O          63.0306   88.7730    9.2140 O.3     1  UNL1       -0.3827
      9 H          63.4628   89.6361    9.1182 H       1  UNL1        0.2104
     10 N          62.3119   91.4509   10.3594 N.3     1  UNL1       -0.2874
     11 H          61.9685   92.2120   10.9452 H       1  UNL1        0.1238
     12 C          63.7975   91.3890   10.5567 C.3     1  UNL1        0.1153
     13 C          64.3747   91.4725   11.9387 C.ar    1  UNL1        0.0746
     14 C          63.8217   90.6118   13.0357 C.ar    1  UNL1        0.0118
     15 C          64.3989   90.6953   14.4176 C.ar    1  UNL1       -0.0200
     16 C          65.5290   91.6396   14.7027 C.ar    1  UNL1        0.0164
     17 C          66.0819   92.5003   13.6057 C.ar    1  UNL1        0.0982
     18 N          65.5047   92.4167   12.2237 N.ar    1  UNL1       -0.2468
     19 C          63.8459   89.8345   15.5146 C.3     1  UNL1        0.0190
     20 C          63.5897   91.0573   16.3449 C.3     1  UNL1        0.0044
     21 C          64.1022   88.6118   14.6844 C.3     1  UNL1        0.0044
     22 C          63.2930   88.9738   16.6116 C.3     1  UNL1        0.0044
     23 C          61.3347   86.3753    9.8268 C.3     1  UNL1        0.0342
     24 C          63.4989   84.8203   12.7676 C.ar    1  UNL1        0.1535
     25 C          62.5740   85.7328   12.0181 C.ar    1  UNL1        0.0341
     26 C          62.2597   85.4628   10.5764 C.ar    1  UNL1       -0.0166
     27 C          62.8703   84.2803    9.8844 C.ar    1  UNL1        0.0268
     28 C          63.7951   83.3679   10.6339 C.ar    1  UNL1        0.1556
     29 F          64.4058   82.1854    9.9419 F       1  UNL1       -0.2028
     30 C          64.1095   83.6378   12.0756 C.ar    1  UNL1        0.1037
     31 N          65.0344   82.7253   12.8252 N.pl3   1  UNL1       -0.3529
     32 H          65.4352   81.9492   12.3709 H       1  UNL1        0.1425
     33 H          65.2407   82.9025   13.7714 H       1  UNL1        0.1425
     34 O          63.8132   85.0903   14.2093 O.3     1  UNL1       -0.4665
     35 C          62.8777   84.6173   15.2822 C.3     1  UNL1        0.2891
     36 C          62.7540   85.3885   16.5629 C.3     1  UNL1        0.4366
     37 F          62.6303   86.1596   17.8435 F       1  UNL1       -0.1663
     38 F          64.2487   85.4345   16.6796 F       1  UNL1       -0.1663
     39 F          61.2593   85.3425   16.4461 F       1  UNL1       -0.1663
     40 C          62.0659   83.3732   15.0745 C.3     1  UNL1        0.1945
     41 C          62.0820   81.0130   13.9885 C.3     1  UNL1        0.1743
     42 O          62.7520   82.0630   14.8243 O.3     1  UNL1       -0.3469
@<TRIPOS>UNITY_ATOM_ATTR
3 1
charge 1
4 1
charge -1
@<TRIPOS>BOND
     1    41    42    1
     2    42    40    1
     3    35    40    1
     4    35    34    1
     5    34    24    1
     6    24    25   ar
     7    25    26   ar
     8    26    23    1
     9     1    23    1
    10     1     2    1
    11     2     3    1
    12     3     4    2
    13     3     5    1
    14     5     6    1
    15     6    10    1
    16    10    12    1
    17    12    13    1
    18    13    14   ar
    19    14    15   ar
    20    15    19    1
    21    19    20    1
    22    19    21    1
    23    19    22    1
    24    15    16   ar
    25    16    17   ar
    26    17    18   ar
    27     6     7    1
    28     7     8    1
    29    26    27   ar
    30    27    28   ar
    31    28    29    1
    32    28    30   ar
    33    30    31    1
    34    35    36    1
    35    36    37    1
    36    36    38    1
    37    36    39    1
    38    30    24   ar
    39     7     1    1
    40    18    13   ar
    41    10    11    1
    42     8     9    1
    43    31    32    1
    44    31    33    1
@<TRIPOS>MOLECULE
*****
 42 44 0 0 0
SMALL
GASTEIGER

@<TRIPOS>ATOM
      1 C          63.1049   90.3470   11.8724 C.3     1  UNL1        0.0920
      2 C          63.0553   89.0995   12.7040 C.3     1  UNL1        0.2582
      3 S          63.9245   88.9737   13.9200 S.O     1  UNL1        0.0319
      4 O          63.8749   87.7264   14.7516 O.co2   1  UNL1       -0.6812
      5 C          64.8433   90.0954   14.3044 C.3     1  UNL1        0.2736
      6 C          64.8929   91.3428   13.4729 C.3     1  UNL1        0.1416
      7 C          64.0237   91.4685   12.2568 C.3     1  UNL1        0.1353
      8 O          64.0733   92.7160   11.4253 O.3     1  UNL1       -0.3827
      9 H          64.7134   93.3354   11.8094 H       1  UNL1        0.2104
     10 N          65.8117   92.4645   13.8573 N.3     1  UNL1       -0.2874
     11 H          65.8844   92.4500   14.8746 H       1  UNL1        0.1238
     12 C          67.2130   92.5025   13.3234 C.3     1  UNL1        0.1153
     13 C          67.4582   92.8480   11.8845 C.ar    1  UNL1        0.0746
     14 C          66.8232   94.0688   11.2875 C.ar    1  UNL1        0.0118
     15 C          67.0685   94.4143    9.8486 C.ar    1  UNL1       -0.0200
     16 C          67.9488   93.5389    9.0067 C.ar    1  UNL1        0.0164
     17 C          68.5838   92.3181    9.6037 C.ar    1  UNL1        0.0982
     18 N          68.3385   91.9726   11.0426 N.ar    1  UNL1       -0.2468
     19 C          66.4335   95.6351    9.2516 C.3     1  UNL1        0.0190
     20 C          65.5275   95.7459   10.4420 C.3     1  UNL1        0.0044
     21 C          67.3395   95.5242    8.0613 C.3     1  UNL1        0.0044
     22 C          65.7986   96.8559    8.6546 C.3     1  UNL1        0.0044
     23 C          62.2357   90.4727   10.6564 C.3     1  UNL1        0.0342
     24 C          61.9839   86.7198    9.3906 C.ar    1  UNL1        0.1535
     25 C          62.4881   87.9514   10.0826 C.ar    1  UNL1        0.0341
     26 C          61.7314   89.2411    9.9643 C.ar    1  UNL1       -0.0166
     27 C          60.4705   89.2993    9.1540 C.ar    1  UNL1        0.0268
     28 C          59.9663   88.0677    8.4620 C.ar    1  UNL1        0.1556
     29 F          58.7053   88.1258    7.6516 F       1  UNL1       -0.2028
     30 C          60.7230   86.7780    8.5803 C.ar    1  UNL1        0.1037
     31 N          60.2187   85.5464    7.8882 N.pl3   1  UNL1       -0.3529
     32 H          59.3911   85.5845    7.3564 H       1  UNL1        0.1425
     33 H          60.7153   84.6998    7.9658 H       1  UNL1        0.1425
     34 O          62.7406   85.4301    9.5089 O.3     1  UNL1       -0.4665
     35 C          62.8108   84.7200   10.8283 C.3     1  UNL1        0.2891
     36 C          63.3273   83.3133   10.8965 C.3     1  UNL1        0.4366
     37 F          63.8438   81.9068   10.9646 F       1  UNL1       -0.1663
     38 F          62.0767   82.8885   11.6074 F       1  UNL1       -0.1663
     39 F          64.5779   83.7382   10.1856 F       1  UNL1       -0.1663
     40 C          62.3645   85.4165   12.0796 C.3     1  UNL1        0.1945
     41 C          64.1824   84.5667   13.7298 C.3     1  UNL1        0.1743
     42 O          62.7450   84.8647   13.4215 O.3     1  UNL1       -0.3469
@<TRIPOS>UNITY_ATOM_ATTR
3 1
charge 1
4 1
charge -1
@<TRIPOS>BOND
     1    41    42    1
     2    42    40    1
     3    35    40    1
     4    35    34    1
     5    34    24    1
     6    24    25   ar
     7    25    26   ar
     8    26    23    1
     9     1    23    1
    10     1     2    1
    11     2     3    1
    12     3     4    2
    13     3     5    1
    14     5     6    1
    15     6    10    1
    16    10    12    1
    17    12    13    1
    18    13    14   ar
    19    14    15   ar
    20    15    19    1
    21    19    20    1
    22    19    21    1
    23    19    22    1
    24    15    16   ar
    25    16    17   ar
    26    17    18   ar
    27     6     7    1
    28     7     8    1
    29    26    27   ar
    30    27    28   ar
    31    28    29    1
    32    28    30   ar
    33    30    31    1
    34    35    36    1
    35    36    37    1
    36    36    38    1
    37    36    39    1
    38    30    24   ar
    39     7     1    1
    40    18    13   ar
    41    10    11    1
    42     8     9    1
    43    31    32    1
    44    31    33    1
@<TRIPOS>MOLECULE
*****
 42 44 0 0 0
SMALL
GASTEIGER

@<TRIPOS>ATOM
      1 C          60.6976   89.4284   10.0120 C.3     1  UNL1        0.0920
      2 C          60.0399   89.8605    8.7349 C.3     1  UNL1        0.2582
      3 S          59.7764   88.8581    7.6506 S.O     1  UNL1        0.0319
      4 O          59.1187   89.2901    6.3736 O.co2   1  UNL1       -0.6812
      5 C          60.1706   87.4237    7.8433 C.3     1  UNL1        0.2736
      6 C          60.8283   86.9917    9.1203 C.3     1  UNL1        0.1416
      7 C          61.0918   87.9941   10.2047 C.3     1  UNL1        0.1353
      8 O          61.7495   87.5620   11.4818 O.3     1  UNL1       -0.3827
      9 H          61.9372   86.6111   11.4431 H       1  UNL1        0.2104
     10 N          61.2225   85.5572    9.3131 N.3     1  UNL1       -0.2874
     11 H          60.7956   85.0297    8.5515 H       1  UNL1        0.1238
     12 C          62.6728   85.1757    9.3445 C.3     1  UNL1        0.1153
     13 C          63.1916   84.2892   10.4375 C.ar    1  UNL1        0.0746
     14 C          62.8542   84.5869   11.8684 C.ar    1  UNL1        0.0118
     15 C          63.3730   83.7003   12.9614 C.ar    1  UNL1       -0.0200
     16 C          64.2293   82.5160   12.6236 C.ar    1  UNL1        0.0164
     17 C          64.5668   82.2182   11.1927 C.ar    1  UNL1        0.0982
     18 N          64.0479   83.1049   10.0996 N.ar    1  UNL1       -0.2468
     19 C          63.0355   83.9980   14.3923 C.3     1  UNL1        0.0190
     20 C          62.2354   82.7314   14.4672 C.3     1  UNL1        0.0044
     21 C          63.8356   85.2646   14.3175 C.3     1  UNL1        0.0044
     22 C          62.6980   84.2957   15.8232 C.3     1  UNL1        0.0044
     23 C          60.9611   90.4308   11.0963 C.3     1  UNL1        0.0342
     24 C          64.4220   90.7788   13.0072 C.ar    1  UNL1        0.1535
     25 C          63.0140   90.3722   12.6877 C.ar    1  UNL1        0.0341
     26 C          62.3692   90.8374   11.4158 C.ar    1  UNL1       -0.0166
     27 C          63.1325   91.7092   10.4632 C.ar    1  UNL1        0.0268
     28 C          64.5406   92.1158   10.7827 C.ar    1  UNL1        0.1556
     29 F          65.3039   92.9876    9.8301 F       1  UNL1       -0.2028
     30 C          65.1853   91.6506   12.0547 C.ar    1  UNL1        0.1037
     31 N          66.5934   92.0572   12.3741 N.pl3   1  UNL1       -0.3529
     32 H          67.0944   92.6294   11.7489 H       1  UNL1        0.1425
     33 H          67.0166   91.7519   13.2089 H       1  UNL1        0.1425
     34 O          65.0668   90.3136   14.2791 O.3     1  UNL1       -0.4665
     35 C          64.3252   90.4206   15.5786 C.3     1  UNL1        0.2891
     36 C          63.6192   89.2222   16.1402 C.3     1  UNL1        0.4366
     37 F          62.9133   88.0238   16.7018 F       1  UNL1       -0.1663
     38 F          64.2980   88.3479   15.1279 F       1  UNL1       -0.1663
     39 F          62.9405   90.0964   17.1525 F       1  UNL1       -0.1663
     40 C          64.2897   91.7261   16.3165 C.3     1  UNL1        0.1945
     41 C          66.6942   92.6963   16.1514 C.3     1  UNL1        0.1743
     42 O          65.2184   92.8361   15.9222 O.3     1  UNL1       -0.3469
@<TRIPOS>UNITY_ATOM_ATTR
3 1
charge 1
4 1
charge -1
@<TRIPOS>BOND
     1    41    42    1
     2    42    40    1
     3    35    40    1
     4    35    34    1
     5    34    24    1
     6    24    25   ar
     7    25    26   ar
     8    26    23    1
     9     1    23    1
    10     1     2    1
    11     2     3    1
    12     3     4    2
    13     3     5    1
    14     5     6    1
    15     6    10    1
    16    10    12    1
    17    12    13    1
    18    13    14   ar
    19    14    15   ar
    20    15    19    1
    21    19    20    1
    22    19    21    1
    23    19    22    1
    24    15    16   ar
    25    16    17   ar
    26    17    18   ar
    27     6     7    1
    28     7     8    1
    29    26    27   ar
    30    27    28   ar
    31    28    29    1
    32    28    30   ar
    33    30    31    1
    34    35    36    1
    35    36    37    1
    36    36    38    1
    37    36    39    1
    38    30    24   ar
    39     7     1    1
    40    18    13   ar
    41    10    11    1
    42     8     9    1
    43    31    32    1
    44    31    33    1
@<TRIPOS>MOLECULE
*****
 42 44 0 0 0
SMALL
GASTEIGER

@<TRIPOS>ATOM
      1 C          61.0460   89.1571   10.6546 C.3     1  UNL1        0.0920
      2 C          60.1155   89.3686    9.4972 C.3     1  UNL1        0.2582
      3 S          60.0379   88.3477    8.4010 S.O     1  UNL1        0.0319
      4 O          59.1075   88.5592    7.2436 O.co2   1  UNL1       -0.6812
      5 C          60.8908   87.1152    8.4622 C.3     1  UNL1        0.2736
      6 C          61.8212   86.9037    9.6195 C.3     1  UNL1        0.1416
      7 C          61.8988   87.9247   10.7157 C.3     1  UNL1        0.1353
      8 O          62.8293   87.7131   11.8732 O.3     1  UNL1       -0.3827
      9 H          63.3027   86.8743   11.7583 H       1  UNL1        0.2104
     10 N          62.6741   85.6712    9.6808 N.3     1  UNL1       -0.2874
     11 H          63.5536   85.9433   10.1199 H       1  UNL1        0.1238
     12 C          62.1839   84.4555   10.4099 C.3     1  UNL1        0.1153
     13 C          62.8713   84.0057   11.6649 C.ar    1  UNL1        0.0746
     14 C          62.8313   84.8673   12.8921 C.ar    1  UNL1        0.0118
     15 C          63.5188   84.4175   14.1471 C.ar    1  UNL1       -0.0200
     16 C          64.2463   83.1060   14.1750 C.ar    1  UNL1        0.0164
     17 C          64.2862   82.2443   12.9478 C.ar    1  UNL1        0.0982
     18 N          63.5988   82.6942   11.6928 N.ar    1  UNL1       -0.2468
     19 C          63.4788   85.2792   15.3742 C.3     1  UNL1        0.0190
     20 C          64.6045   86.1074   14.8294 C.3     1  UNL1        0.0044
     21 C          62.3531   84.4510   15.9191 C.3     1  UNL1        0.0044
     22 C          63.4388   86.1409   16.6014 C.3     1  UNL1        0.0044
     23 C          61.1236   90.1780   11.7508 C.3     1  UNL1        0.0342
     24 C          64.8222   91.3112   12.6374 C.ar    1  UNL1        0.1535
     25 C          63.5416   91.1196   11.8803 C.ar    1  UNL1        0.0341
     26 C          62.4043   90.3696   12.5080 C.ar    1  UNL1       -0.0166
     27 C          62.5475   89.8112   13.8927 C.ar    1  UNL1        0.0268
     28 C          63.8282   90.0027   14.6498 C.ar    1  UNL1        0.1556
     29 F          63.9715   89.4443   16.0347 F       1  UNL1       -0.2028
     30 C          64.9655   90.7527   14.0222 C.ar    1  UNL1        0.1037
     31 N          66.2462   90.9443   14.7794 N.pl3   1  UNL1       -0.3529
     32 H          66.3402   90.5778   15.6883 H       1  UNL1        0.1425
     33 H          66.9927   91.4366   14.3675 H       1  UNL1        0.1425
     34 O          65.9596   92.0612   12.0098 O.3     1  UNL1       -0.4665
     35 C          66.1224   93.5298   12.2675 C.3     1  UNL1        0.2891
     36 C          65.8154   94.5201   11.1834 C.3     1  UNL1        0.4366
     37 F          65.5084   95.5103   10.0994 F       1  UNL1       -0.1663
     38 F          66.1110   95.6466   12.1287 F       1  UNL1       -0.1663
     39 F          65.5199   93.3936   10.2382 F       1  UNL1       -0.1663
     40 C          66.5923   94.0083   13.6093 C.3     1  UNL1        0.1945
     41 C          68.1051   93.6744   15.6950 C.3     1  UNL1        0.1743
     42 O          67.7709   93.3548   14.2681 O.3     1  UNL1       -0.3469
@<TRIPOS>UNITY_ATOM_ATTR
3 1
charge 1
4 1
charge -1
@<TRIPOS>BOND
     1    41    42    1
     2    42    40    1
     3    35    40    1
     4    35    34    1
     5    34    24    1
     6    24    25   ar
     7    25    26   ar
     8    26    23    1
     9     1    23    1
    10     1     2    1
    11     2     3    1
    12     3     4    2
    13     3     5    1
    14     5     6    1
    15     6    10    1
    16    10    12    1
    17    12    13    1
    18    13    14   ar
    19    14    15   ar
    20    15    19    1
    21    19    20    1
    22    19    21    1
    23    19    22    1
    24    15    16   ar
    25    16    17   ar
    26    17    18   ar
    27     6     7    1
    28     7     8    1
    29    26    27   ar
    30    27    28   ar
    31    28    29    1
    32    28    30   ar
    33    30    31    1
    34    35    36    1
    35    36    37    1
    36    36    38    1
    37    36    39    1
    38    30    24   ar
    39     7     1    1
    40    18    13   ar
    41    10    11    1
    42     8     9    1
    43    31    32    1
    44    31    33    1
@<TRIPOS>MOLECULE
*****
 42 44 0 0 0
SMALL
GASTEIGER

@<TRIPOS>ATOM
      1 C          63.2670   90.1331   12.0985 C.3     1  UNL1        0.0920
      2 C          63.3049   88.7278   12.6219 C.3     1  UNL1        0.2582
      3 S          63.9888   88.4305   13.9234 S.O     1  UNL1        0.0319
      4 O          64.0268   87.0254   14.4469 O.co2   1  UNL1       -0.6812
      5 C          64.6349   89.5384   14.7014 C.3     1  UNL1        0.2736
      6 C          64.5970   90.9436   14.1779 C.3     1  UNL1        0.1416
      7 C          63.9130   91.2409   12.8764 C.3     1  UNL1        0.1353
      8 O          63.8751   92.6461   12.3529 O.3     1  UNL1       -0.3827
      9 H          64.3351   93.2343   12.9721 H       1  UNL1        0.2104
     10 N          65.2431   92.0515   14.9558 N.3     1  UNL1       -0.2874
     11 H          65.3868   91.7013   15.9030 H       1  UNL1        0.1238
     12 C          66.5540   92.6216   14.5014 C.3     1  UNL1        0.1153
     13 C          66.6409   93.3538   13.1951 C.ar    1  UNL1        0.0746
     14 C          67.3231   92.7155   12.0215 C.ar    1  UNL1        0.0118
     15 C          67.4100   93.4477   10.7153 C.ar    1  UNL1       -0.0200
     16 C          66.8147   94.8182   10.5826 C.ar    1  UNL1        0.0164
     17 C          66.1326   95.4564   11.7562 C.ar    1  UNL1        0.0982
     18 N          66.0457   94.7242   13.0625 N.ar    1  UNL1       -0.2468
     19 C          68.0922   92.8094    9.5417 C.3     1  UNL1        0.0190
     20 C          67.7513   94.0004    8.6959 C.3     1  UNL1        0.0044
     21 C          68.4331   91.6185   10.3876 C.3     1  UNL1        0.0044
     22 C          68.7743   92.1712    8.3681 C.3     1  UNL1        0.0044
     23 C          62.5830   90.4304   10.7970 C.3     1  UNL1        0.0342
     24 C          61.2360   86.8515    9.7351 C.ar    1  UNL1        0.1535
     25 C          62.0347   87.9184   10.4235 C.ar    1  UNL1        0.0341
     26 C          61.7842   89.3634   10.1086 C.ar    1  UNL1       -0.0166
     27 C          60.7351   89.7416    9.1055 C.ar    1  UNL1        0.0268
     28 C          59.9365   88.6747    8.4172 C.ar    1  UNL1        0.1556
     29 F          58.8873   89.0528    7.4140 F       1  UNL1       -0.2028
     30 C          60.1869   87.2297    8.7320 C.ar    1  UNL1        0.1037
     31 N          59.3882   86.1627    8.0436 N.pl3   1  UNL1       -0.3529
     32 H          58.6996   86.4109    7.3852 H       1  UNL1        0.1425
     33 H          59.5525   85.2143    8.2503 H       1  UNL1        0.1425
     34 O          61.4865   85.4065   10.0500 O.3     1  UNL1       -0.4665
     35 C          62.7402   84.7399    9.5665 C.3     1  UNL1        0.2891
     36 C          63.6355   84.0308   10.5390 C.3     1  UNL1        0.4366
     37 F          64.5308   83.3217   11.5114 F       1  UNL1       -0.1663
     38 F          63.1645   84.9396   11.6354 F       1  UNL1       -0.1663
     39 F          64.1066   83.1220    9.4426 F       1  UNL1       -0.1663
     40 C          63.0987   84.7824    8.1106 C.3     1  UNL1        0.1945
     41 C          62.2615   84.3681    5.6863 C.3     1  UNL1        0.1743
     42 O          62.0183   84.8810    7.0747 O.3     1  UNL1       -0.3469
@<TRIPOS>UNITY_ATOM_ATTR
3 1
charge 1
4 1
charge -1
@<TRIPOS>BOND
     1    41    42    1
     2    42    40    1
     3    35    40    1
     4    35    34    1
     5    34    24    1
     6    24    25   ar
     7    25    26   ar
     8    26    23    1
     9     1    23    1
    10     1     2    1
    11     2     3    1
    12     3     4    2
    13     3     5    1
    14     5     6    1
    15     6    10    1
    16    10    12    1
    17    12    13    1
    18    13    14   ar
    19    14    15   ar
    20    15    19    1
    21    19    20    1
    22    19    21    1
    23    19    22    1
    24    15    16   ar
    25    16    17   ar
    26    17    18   ar
    27     6     7    1
    28     7     8    1
    29    26    27   ar
    30    27    28   ar
    31    28    29    1
    32    28    30   ar
    33    30    31    1
    34    35    36    1
    35    36    37    1
    36    36    38    1
    37    36    39    1
    38    30    24   ar
    39     7     1    1
    40    18    13   ar
    41    10    11    1
    42     8     9    1
    43    31    32    1
    44    31    33    1
