@<TRIPOS>MOLECULE
*****
 42 46 0 0 0
SMALL
GASTEIGER

@<TRIPOS>ATOM
      1 C          64.4206   89.7090   14.2701 C.2     1  UNL1        0.0332
      2 C          63.9472   89.5208   15.6809 C.2     1  UNL1        0.0101
      3 C          63.4478   88.1801   16.1319 C.2     1  UNL1        0.0255
      4 C          62.9744   87.9919   17.5427 C.3     1  UNL1        0.0351
      5 C          63.4218   87.0278   15.1719 C.2     1  UNL1        0.2278
      6 N          62.9871   85.6007   15.3285 N.2     1  UNL1       -0.0345
      7 C          63.1918   84.9071   14.0144 C.2     1  UNL1        0.3649
      8 N          63.7530   85.9054   13.0457 N.2     1  UNL1       -0.0380
      9 C          63.8952   87.2161   13.7611 C.2     1  UNL1        0.2184
     10 C          64.3946   88.5567   13.3102 C.3     1  UNL1        0.1186
     11 C          62.8885   83.4677   13.7205 C.3     1  UNL1        0.2250
     12 C          62.8752   82.9784   12.3026 C.2     1  UNL1        0.0436
     13 C          62.5718   81.5390   12.0088 C.2     1  UNL1        0.0288
     14 C          62.2818   80.5890   13.1328 C.2     1  UNL1        0.0896
     15 N          62.2951   81.0784   14.5507 N.am    1  UNL1       -0.1770
     16 C          62.5985   82.5177   14.8445 C.2     1  UNL1        0.2627
     17 O          62.6118   83.0071   16.2624 O.2     1  UNL1       -0.2719
     18 N          63.1651   83.9283   11.1786 N.pl3   1  UNL1       -0.3329
     19 H          64.0744   83.9868   10.8058 H       1  UNL1        0.1466
     20 C          62.0698   84.7891   10.6225 C.3     1  UNL1        0.1211
     21 C          62.3124   85.6082    9.3896 C.3     1  UNL1        0.1522
     22 O          63.2851   85.1317    8.3519 O.3     1  UNL1       -0.3783
     23 H          63.6665   84.2846    8.6311 H       1  UNL1        0.2109
     24 C          61.5822   86.9038    9.1942 C.ar    1  UNL1        0.0067
     25 C          60.4067   86.9696    8.2648 C.ar    1  UNL1       -0.0018
     26 C          59.6765   88.2652    8.0694 C.ar    1  UNL1        0.0006
     27 C          60.1218   89.4951    8.8035 C.ar    1  UNL1        0.0114
     28 C          61.2972   89.4294    9.7330 C.ar    1  UNL1        0.0574
     29 CL         61.7425   90.6594   10.4671 Cl      1  UNL1       -0.0823
     30 C          62.0274   88.1338    9.9283 C.ar    1  UNL1        0.0095
     31 N          65.9188   93.7309   12.9173 N.3     1  UNL1       -0.2620
     32 C          66.2401   93.2359   14.2963 C.3     1  UNL1        0.0942
     33 C          65.7406   91.8953   14.7472 C.3     1  UNL1        0.1079
     34 N          64.9200   91.0497   13.8191 N.pl3   1  UNL1       -0.3076
     35 C          64.5987   91.5446   12.4401 C.3     1  UNL1        0.1079
     36 C          65.0981   92.8853   11.9891 C.3     1  UNL1        0.0942
     37 C          66.4182   95.0715   12.4663 C.3     1  UNL1        0.1585
     38 C          67.5021   95.1517    8.6495 C.3     1  UNL1        0.1107
     39 N          67.4818   94.8115   10.1102 N.am    1  UNL1       -0.3015
     40 C          66.4386   95.4117   11.0056 C.2     1  UNL1        0.2389
     41 O          65.4159   96.3521   10.4402 O.2     1  UNL1       -0.2736
     42 H          68.1530   94.1942   10.4813 H       1  UNL1        0.1495
@<TRIPOS>BOND
     1    38    39    1
     2    39    40   am
     3    40    41    2
     4    40    37    1
     5    37    31    1
     6    31    32    1
     7    32    33    1
     8    33    34    1
     9    34     1    1
    10     1     2    2
    11     2     3    1
    12     3     4    1
    13     3     5    2
    14     5     6    1
    15     6     7    2
    16     7    11    1
    17    11    12    1
    18    12    18    1
    19    18    20    1
    20    20    21    1
    21    21    22    1
    22    21    24    1
    23    24    25   ar
    24    25    26   ar
    25    26    27   ar
    26    27    28   ar
    27    28    29    1
    28    28    30   ar
    29    12    13    2
    30    13    14    1
    31    14    15    2
    32    15    16    1
    33    16    17    2
    34     7     8    1
    35     8     9    2
    36     9    10    1
    37    34    35    1
    38    35    36    1
    39    36    31    1
    40    10     1    1
    41     9     5    1
    42    16    11    1
    43    30    24   ar
    44    39    42    1
    45    18    19    1
    46    22    23    1
@<TRIPOS>MOLECULE
*****
 42 46 0 0 0
SMALL
GASTEIGER

@<TRIPOS>ATOM
      1 C          59.7268   90.0511    6.4209 C.2     1  UNL1        0.0332
      2 C          58.3130   90.4636    6.1366 C.2     1  UNL1        0.0101
      3 C          58.0153   91.3763    4.9840 C.2     1  UNL1        0.0255
      4 C          56.6014   91.7888    4.6998 C.3     1  UNL1        0.0351
      5 C          59.1315   91.8764    4.1158 C.2     1  UNL1        0.2278
      6 N          59.1441   92.7797    2.9183 N.2     1  UNL1       -0.0345
      7 C          60.5657   92.9254    2.4625 C.2     1  UNL1        0.3649
      8 N          61.4318   92.1122    3.3783 N.2     1  UNL1       -0.0380
      9 C          60.5454   91.4639    4.4001 C.2     1  UNL1        0.2184
     10 C          60.8430   90.5512    5.5527 C.3     1  UNL1        0.1186
     11 C          61.0383   93.7411    1.2958 C.3     1  UNL1        0.2250
     12 C          60.0955   94.0624    0.1743 C.2     1  UNL1        0.0436
     13 C          60.5683   94.8781   -0.9925 C.2     1  UNL1        0.0288
     14 C          61.9837   95.3726   -1.0376 C.2     1  UNL1        0.0896
     15 N          62.9265   95.0513    0.0839 N.am    1  UNL1       -0.1770
     16 C          62.4538   94.2356    1.2506 C.2     1  UNL1        0.2627
     17 O          63.3965   93.9143    2.3722 O.2     1  UNL1       -0.2719
     18 N          58.6801   93.5680    0.2193 N.pl3   1  UNL1       -0.3329
     19 H          58.3576   93.0695    1.0047 H       1  UNL1        0.1466
     20 C          57.7560   93.8330   -0.9321 C.3     1  UNL1        0.1211
     21 C          57.2818   92.6975   -1.7899 C.3     1  UNL1        0.1522
     22 O          56.7292   91.4567   -1.1534 O.3     1  UNL1       -0.3783
     23 H          56.7495   91.5519   -0.1883 H       1  UNL1        0.2109
     24 C          57.3602   92.8029   -3.2841 C.ar    1  UNL1        0.0067
     25 C          58.3737   93.7074   -3.9201 C.ar    1  UNL1       -0.0018
     26 C          58.4521   93.8127   -5.4144 C.ar    1  UNL1        0.0006
     27 C          57.5168   93.0136   -6.2727 C.ar    1  UNL1        0.0114
     28 C          56.5032   92.1091   -5.6366 C.ar    1  UNL1        0.0574
     29 CL         55.5680   91.3100   -6.4949 Cl      1  UNL1       -0.0823
     30 C          56.4249   92.0038   -4.1424 C.ar    1  UNL1        0.0095
     31 N          60.6198   87.3129    9.8785 N.3     1  UNL1       -0.2620
     32 C          59.9644   86.7713    8.6428 C.3     1  UNL1        0.0942
     33 C          59.6667   87.6840    7.4903 C.3     1  UNL1        0.1079
     34 N          60.0245   89.1384    7.5735 N.pl3   1  UNL1       -0.3076
     35 C          60.6799   89.6799    8.8092 C.3     1  UNL1        0.1079
     36 C          60.9776   88.7672    9.9618 C.3     1  UNL1        0.0942
     37 C          60.9175   86.4002   11.0310 C.3     1  UNL1        0.1585
     38 C          63.7452   83.8520   12.1539 C.3     1  UNL1        0.1107
     39 N          62.5622   84.7724   12.2123 N.am    1  UNL1       -0.3015
     40 C          62.1005   85.4797   10.9727 C.2     1  UNL1        0.2389
     41 O          62.8216   85.2667    9.6749 O.2     1  UNL1       -0.2736
     42 H          62.0889   84.9123   13.0641 H       1  UNL1        0.1495
@<TRIPOS>BOND
     1    38    39    1
     2    39    40   am
     3    40    41    2
     4    40    37    1
     5    37    31    1
     6    31    32    1
     7    32    33    1
     8    33    34    1
     9    34     1    1
    10     1     2    2
    11     2     3    1
    12     3     4    1
    13     3     5    2
    14     5     6    1
    15     6     7    2
    16     7    11    1
    17    11    12    1
    18    12    18    1
    19    18    20    1
    20    20    21    1
    21    21    22    1
    22    21    24    1
    23    24    25   ar
    24    25    26   ar
    25    26    27   ar
    26    27    28   ar
    27    28    29    1
    28    28    30   ar
    29    12    13    2
    30    13    14    1
    31    14    15    2
    32    15    16    1
    33    16    17    2
    34     7     8    1
    35     8     9    2
    36     9    10    1
    37    34    35    1
    38    35    36    1
    39    36    31    1
    40    10     1    1
    41     9     5    1
    42    16    11    1
    43    30    24   ar
    44    39    42    1
    45    18    19    1
    46    22    23    1
@<TRIPOS>MOLECULE
*****
 42 46 0 0 0
SMALL
GASTEIGER

@<TRIPOS>ATOM
      1 C          60.1700   89.1493    8.2145 C.2     1  UNL1        0.0332
      2 C          59.6783   89.5977    9.5586 C.2     1  UNL1        0.0101
      3 C          60.0771   88.8442   10.7929 C.2     1  UNL1        0.0255
      4 C          59.5852   89.2926   12.1371 C.3     1  UNL1        0.0351
      5 C          60.9677   87.6422   10.6827 C.2     1  UNL1        0.2278
      6 N          61.5237   86.7071   11.7154 N.2     1  UNL1       -0.0345
      7 C          62.3591   85.6807   11.0093 C.2     1  UNL1        0.3649
      8 N          62.3194   85.9815    9.5403 N.2     1  UNL1       -0.0380
      9 C          61.4595   87.1938    9.3384 C.2     1  UNL1        0.2184
     10 C          61.0606   87.9474    8.1043 C.3     1  UNL1        0.1186
     11 C          63.1036   84.5517   11.6582 C.3     1  UNL1        0.2250
     12 C          63.5124   84.6523   13.0979 C.2     1  UNL1        0.0436
     13 C          64.2569   83.5232   13.7468 C.2     1  UNL1        0.0288
     14 C          64.5925   82.2936   12.9560 C.2     1  UNL1        0.0896
     15 N          64.1836   82.1929   11.5163 N.am    1  UNL1       -0.1770
     16 C          63.4392   83.3220   10.8675 C.2     1  UNL1        0.2627
     17 O          63.0303   83.2214    9.4278 O.2     1  UNL1       -0.2719
     18 N          63.1769   85.8819   13.8887 N.pl3   1  UNL1       -0.3329
     19 H          62.2367   86.1027   14.0801 H       1  UNL1        0.1466
     20 C          64.2736   86.7751   14.3879 C.3     1  UNL1        0.1211
     21 C          63.9457   88.1361   14.9266 C.3     1  UNL1        0.1522
     22 O          63.3842   88.2798   16.3101 O.3     1  UNL1       -0.3783
     23 H          63.2963   87.4033   16.7161 H       1  UNL1        0.2109
     24 C          64.1794   89.3534   14.0818 C.ar    1  UNL1        0.0067
     25 C          65.1510   90.4036   14.5322 C.ar    1  UNL1       -0.0018
     26 C          65.3847   91.6209   13.6874 C.ar    1  UNL1        0.0006
     27 C          64.6467   91.7879   12.3922 C.ar    1  UNL1        0.0114
     28 C          63.6751   90.7376   11.9418 C.ar    1  UNL1        0.0574
     29 CL         62.9372   90.9046   10.6466 Cl      1  UNL1       -0.0823
     30 C          63.4415   89.5203   12.7866 C.ar    1  UNL1        0.0095
     31 N          58.9736   91.4098    4.5119 N.3     1  UNL1       -0.2620
     32 C          57.9207   90.8583    5.4270 C.3     1  UNL1        0.0942
     33 C          58.3196   90.1049    6.6612 C.3     1  UNL1        0.1079
     34 N          59.7712   89.9028    6.9802 N.pl3   1  UNL1       -0.3076
     35 C          60.8240   90.4543    6.0652 C.3     1  UNL1        0.1079
     36 C          60.4252   91.2078    4.8309 C.3     1  UNL1        0.0942
     37 C          58.5747   92.1633    3.2777 C.3     1  UNL1        0.1585
     38 C          61.1888   93.0092    0.4140 C.3     1  UNL1        0.1107
     39 N          60.1514   92.2809    1.2161 N.am    1  UNL1       -0.3015
     40 C          59.6121   92.8916    2.4756 C.2     1  UNL1        0.2389
     41 O          60.1102   94.2305    2.9329 O.2     1  UNL1       -0.2736
     42 H          59.8245   91.4021    0.9160 H       1  UNL1        0.1495
@<TRIPOS>BOND
     1    38    39    1
     2    39    40   am
     3    40    41    2
     4    40    37    1
     5    37    31    1
     6    31    32    1
     7    32    33    1
     8    33    34    1
     9    34     1    1
    10     1     2    2
    11     2     3    1
    12     3     4    1
    13     3     5    2
    14     5     6    1
    15     6     7    2
    16     7    11    1
    17    11    12    1
    18    12    18    1
    19    18    20    1
    20    20    21    1
    21    21    22    1
    22    21    24    1
    23    24    25   ar
    24    25    26   ar
    25    26    27   ar
    26    27    28   ar
    27    28    29    1
    28    28    30   ar
    29    12    13    2
    30    13    14    1
    31    14    15    2
    32    15    16    1
    33    16    17    2
    34     7     8    1
    35     8     9    2
    36     9    10    1
    37    34    35    1
    38    35    36    1
    39    36    31    1
    40    10     1    1
    41     9     5    1
    42    16    11    1
    43    30    24   ar
    44    39    42    1
    45    18    19    1
    46    22    23    1
@<TRIPOS>MOLECULE
*****
 42 46 0 0 0
SMALL
GASTEIGER

@<TRIPOS>ATOM
      1 C          63.1684   89.1101   11.3742 C.2     1  UNL1        0.0332
      2 C          61.9310   88.9318   10.5456 C.2     1  UNL1        0.0101
      3 C          61.2983   87.5771   10.4243 C.2     1  UNL1        0.0255
      4 C          60.0607   87.3988    9.5956 C.3     1  UNL1        0.0351
      5 C          61.9032   86.4008   11.1317 C.2     1  UNL1        0.2278
      6 N          61.5055   84.9560   11.1975 N.2     1  UNL1       -0.0345
      7 C          62.4973   84.2414   12.0668 C.2     1  UNL1        0.3649
      8 N          63.5079   85.2446   12.5383 N.2     1  UNL1       -0.0380
      9 C          63.1407   86.5792   11.9604 C.2     1  UNL1        0.2184
     10 C          63.7734   87.9339   12.0817 C.3     1  UNL1        0.1186
     11 C          62.4813   82.7802   12.4052 C.3     1  UNL1        0.2250
     12 C          62.1209   82.3353   13.7917 C.2     1  UNL1        0.0436
     13 C          62.1049   80.8741   14.1300 C.2     1  UNL1        0.0288
     14 C          62.4493   79.8577   13.0820 C.2     1  UNL1        0.0896
     15 N          62.8097   80.3025   11.6956 N.am    1  UNL1       -0.1770
     16 C          62.8257   81.7638   11.3573 C.2     1  UNL1        0.2627
     17 O          63.1862   82.2087    9.9708 O.2     1  UNL1       -0.2719
     18 N          61.7764   83.3516   14.8397 N.pl3   1  UNL1       -0.3329
     19 H          60.9037   83.8066   14.8162 H       1  UNL1        0.1466
     20 C          62.7617   83.6748   15.9236 C.3     1  UNL1        0.1211
     21 C          63.7859   84.7497   15.7100 C.3     1  UNL1        0.1522
     22 O          65.0523   84.4420   14.9674 O.3     1  UNL1       -0.3783
     23 H          65.0500   83.5107   14.6963 H       1  UNL1        0.2109
     24 C          63.5436   86.1323   16.2390 C.ar    1  UNL1        0.0067
     25 C          62.8508   86.3207   17.5560 C.ar    1  UNL1       -0.0018
     26 C          62.6086   87.7033   18.0850 C.ar    1  UNL1        0.0006
     27 C          63.0592   88.8975   17.2970 C.ar    1  UNL1        0.0114
     28 C          63.7520   88.7090   15.9800 C.ar    1  UNL1        0.0574
     29 CL         64.2026   89.9032   15.1920 Cl      1  UNL1       -0.0823
     30 C          63.9942   87.3264   15.4510 C.ar    1  UNL1        0.0095
     31 N          65.0665   93.1741   11.7380 N.3     1  UNL1       -0.2620
     32 C          64.3642   92.7849   10.4709 C.3     1  UNL1        0.0942
     33 C          63.7315   91.4303   10.3497 C.3     1  UNL1        0.1079
     34 N          63.8011   90.4648   11.4955 N.pl3   1  UNL1       -0.3076
     35 C          64.5034   90.8539   12.7625 C.3     1  UNL1        0.1079
     36 C          65.1361   92.2086   12.8838 C.3     1  UNL1        0.0942
     37 C          65.6991   94.5287   11.8592 C.3     1  UNL1        0.1585
     38 C          67.5198   95.7654    8.5569 C.3     1  UNL1        0.1107
     39 N          67.2067   94.9708    9.7900 N.am    1  UNL1       -0.3015
     40 C          66.0122   95.3233   10.6261 C.2     1  UNL1        0.2389
     41 O          65.1309   96.4702   10.2291 O.2     1  UNL1       -0.2736
     42 H          67.7852   94.2180   10.0506 H       1  UNL1        0.1495
@<TRIPOS>BOND
     1    38    39    1
     2    39    40   am
     3    40    41    2
     4    40    37    1
     5    37    31    1
     6    31    32    1
     7    32    33    1
     8    33    34    1
     9    34     1    1
    10     1     2    2
    11     2     3    1
    12     3     4    1
    13     3     5    2
    14     5     6    1
    15     6     7    2
    16     7    11    1
    17    11    12    1
    18    12    18    1
    19    18    20    1
    20    20    21    1
    21    21    22    1
    22    21    24    1
    23    24    25   ar
    24    25    26   ar
    25    26    27   ar
    26    27    28   ar
    27    28    29    1
    28    28    30   ar
    29    12    13    2
    30    13    14    1
    31    14    15    2
    32    15    16    1
    33    16    17    2
    34     7     8    1
    35     8     9    2
    36     9    10    1
    37    34    35    1
    38    35    36    1
    39    36    31    1
    40    10     1    1
    41     9     5    1
    42    16    11    1
    43    30    24   ar
    44    39    42    1
    45    18    19    1
    46    22    23    1
