@<TRIPOS>MOLECULE
*****
 41 44 0 0 0
SMALL
GASTEIGER

@<TRIPOS>ATOM
      1 C          64.1074   89.2557   13.1454 C.ar    1  UNL1        0.0053
      2 C          64.3730   89.0631   14.6090 C.ar    1  UNL1        0.0033
      3 C          64.1346   87.7256   15.2447 C.ar    1  UNL1        0.0382
      4 C          63.6306   86.5808   14.4169 C.ar    1  UNL1        0.1529
      5 C          63.3650   86.7734   12.9532 C.ar    1  UNL1        0.0881
      6 C          63.6034   88.1109   12.3175 C.ar    1  UNL1        0.0181
      7 N          62.8610   85.6286   12.1254 N.am    1  UNL1       -0.2529
      8 C          62.6227   84.2911   12.7611 C.2     1  UNL1        0.2697
      9 O          62.1187   83.1463   11.9333 O.2     1  UNL1       -0.2704
     10 C          62.8883   84.0984   14.2248 C.3     1  UNL1        0.2199
     11 C          62.9913   83.4272   15.5623 C.3     1  UNL1        0.0579
     12 O          63.3923   85.2432   15.0527 O.3     1  UNL1       -0.4686
     13 C          63.6655   90.9421   11.2189 C.ar    1  UNL1        0.0645
     14 N          63.9038   92.2796   10.5831 N.ar    1  UNL1       -0.2183
     15 C          64.8225   93.2683   11.2378 C.ar    1  UNL1        0.2145
     16 N          65.0608   94.6058   10.6020 N.pl3   1  UNL1       -0.3274
     17 N          65.5027   92.9195   12.5284 N.ar    1  UNL1       -0.1995
     18 C          65.2643   91.5820   13.1643 C.ar    1  UNL1        0.1293
     19 N          65.9446   91.2331   14.4548 N.pl3   1  UNL1       -0.3425
     20 C          64.3458   90.5933   12.5095 C.ar    1  UNL1        0.0449
     21 H          64.6143   94.8347    9.7549 H       1  UNL1        0.1452
     22 H          65.6637   95.2547   11.0317 H       1  UNL1        0.1452
     23 H          66.5475   91.8821   14.8846 H       1  UNL1        0.1437
     24 H          65.7881   90.3553   14.8722 H       1  UNL1        0.1437
     25 C          61.2730   90.2253   10.5031 C.3     1  UNL1        0.0067
     26 C          62.7469   89.9534   10.5642 C.3     1  UNL1        0.0460
     27 C          62.4201   82.7205   13.8615 C.ar    1  UNL1        0.0264
     28 C          63.1861   81.9078   12.8601 C.ar    1  UNL1        0.0293
     29 C          62.7179   80.5298   12.4967 C.ar    1  UNL1        0.1422
     30 F          63.4840   79.7172   11.4953 F       1  UNL1       -0.2041
     31 C          61.4837   79.9646   13.1346 C.ar    1  UNL1        0.0592
     32 C          60.7176   80.7772   14.1360 C.ar    1  UNL1        0.1422
     33 F          59.4833   80.2119   14.7739 F       1  UNL1       -0.2041
     34 C          61.1858   82.1552   14.4994 C.ar    1  UNL1        0.0293
     35 C          62.5954   85.8213   10.6617 C.3     1  UNL1        0.0987
     36 C          61.2213   86.1971   10.1919 C.3     1  UNL1        0.0306
     37 C          61.0137   86.6716    8.7841 C.3     1  UNL1        0.1051
     38 C          61.0548   85.6921    7.6488 C.3     1  UNL1        0.3978
     39 F          61.0960   84.7127    6.5135 F       1  UNL1       -0.1700
     40 F          59.5604   85.7577    7.5381 F       1  UNL1       -0.1700
     41 F          62.5493   85.6266    7.7595 F       1  UNL1       -0.1700
@<TRIPOS>BOND
     1    25    26    1
     2    26    13    1
     3    13    14   ar
     4    14    15   ar
     5    15    16    1
     6    15    17   ar
     7    17    18   ar
     8    18    19    1
     9    18    20   ar
    10    20     1    1
    11     1     2   ar
    12     2     3   ar
    13     3     4   ar
    14     4     5   ar
    15     5     6   ar
    16     5     7    1
    17     7    35    1
    18    35    36    1
    19    36    37    1
    20    37    38    1
    21    38    39    1
    22    38    40    1
    23    38    41    1
    24     7     8   am
    25     8     9    2
    26     8    10    1
    27    10    11    1
    28    10    27    1
    29    27    28   ar
    30    28    29   ar
    31    29    30    1
    32    29    31   ar
    33    31    32   ar
    34    32    33    1
    35    32    34   ar
    36    10    12    1
    37    20    13   ar
    38     6     1   ar
    39    34    27   ar
    40    12     4    1
    41    16    21    1
    42    16    22    1
    43    19    23    1
    44    19    24    1
@<TRIPOS>MOLECULE
*****
 41 44 0 0 0
SMALL
GASTEIGER

@<TRIPOS>ATOM
      1 C          64.1152   89.2681   13.1635 C.ar    1  UNL1        0.0053
      2 C          64.3697   89.0748   14.6291 C.ar    1  UNL1        0.0033
      3 C          64.1293   87.7362   15.2618 C.ar    1  UNL1        0.0382
      4 C          63.6345   86.5910   14.4290 C.ar    1  UNL1        0.1529
      5 C          63.3800   86.7843   12.9635 C.ar    1  UNL1        0.0881
      6 C          63.6204   88.1229   12.3308 C.ar    1  UNL1        0.0181
      7 N          62.8852   85.6390   12.1307 N.am    1  UNL1       -0.2529
      8 C          62.6448   84.3005   12.7634 C.2     1  UNL1        0.2697
      9 O          62.1500   83.1552   11.9307 O.2     1  UNL1       -0.2704
     10 C          62.8993   84.1071   14.2291 C.3     1  UNL1        0.2199
     11 C          62.9932   83.4350   15.5667 C.3     1  UNL1        0.0579
     12 O          63.3941   85.2523   15.0618 O.3     1  UNL1       -0.4686
     13 C          65.2553   91.6024   13.2009 C.ar    1  UNL1        0.0645
     14 N          65.4956   92.9410   12.5682 N.ar    1  UNL1       -0.2183
     15 C          64.8363   93.2839   11.2652 C.ar    1  UNL1        0.2145
     16 N          65.0767   94.6225   10.6324 N.pl3   1  UNL1       -0.3274
     17 N          63.9367   92.2882   10.5950 N.ar    1  UNL1       -0.1995
     18 C          63.6963   90.9496   11.2278 C.ar    1  UNL1        0.1293
     19 N          62.7966   89.9539   10.5576 N.pl3   1  UNL1       -0.3425
     20 C          64.3556   90.6067   12.5307 C.ar    1  UNL1        0.0449
     21 H          65.6672   95.2760   11.0723 H       1  UNL1        0.1452
     22 H          64.6440   94.8475    9.7772 H       1  UNL1        0.1452
     23 H          62.3639   90.1789    9.7024 H       1  UNL1        0.1437
     24 H          62.6389   89.0753   10.9729 H       1  UNL1        0.1437
     25 C          67.3427   91.6485   14.7471 C.3     1  UNL1        0.0067
     26 C          65.9146   91.2595   14.5040 C.3     1  UNL1        0.0460
     27 C          62.4371   82.7285   13.8608 C.ar    1  UNL1        0.0264
     28 C          63.2110   81.9196   12.8624 C.ar    1  UNL1        0.0293
     29 C          62.7488   80.5409   12.4942 C.ar    1  UNL1        0.1422
     30 F          63.5228   79.7321   11.4957 F       1  UNL1       -0.2041
     31 C          61.5127   79.9711   13.1243 C.ar    1  UNL1        0.0592
     32 C          60.7387   80.7799   14.1227 C.ar    1  UNL1        0.1422
     33 F          59.5025   80.2100   14.7529 F       1  UNL1       -0.2041
     34 C          61.2009   82.1585   14.4910 C.ar    1  UNL1        0.0293
     35 C          62.6307   85.8324   10.6652 C.3     1  UNL1        0.0987
     36 C          61.2479   86.1523   10.1798 C.3     1  UNL1        0.0306
     37 C          61.0419   86.6593    8.7832 C.3     1  UNL1        0.1051
     38 C          60.9881   85.6950    7.6355 C.3     1  UNL1        0.3978
     39 F          60.9343   84.7307    6.4878 F       1  UNL1       -0.1700
     40 F          59.4972   85.8487    7.5762 F       1  UNL1       -0.1700
     41 F          62.4790   85.5414    7.6948 F       1  UNL1       -0.1700
@<TRIPOS>BOND
     1    25    26    1
     2    26    13    1
     3    13    14   ar
     4    14    15   ar
     5    15    16    1
     6    15    17   ar
     7    17    18   ar
     8    18    19    1
     9    18    20   ar
    10    20     1    1
    11     1     2   ar
    12     2     3   ar
    13     3     4   ar
    14     4     5   ar
    15     5     6   ar
    16     5     7    1
    17     7    35    1
    18    35    36    1
    19    36    37    1
    20    37    38    1
    21    38    39    1
    22    38    40    1
    23    38    41    1
    24     7     8   am
    25     8     9    2
    26     8    10    1
    27    10    11    1
    28    10    27    1
    29    27    28   ar
    30    28    29   ar
    31    29    30    1
    32    29    31   ar
    33    31    32   ar
    34    32    33    1
    35    32    34   ar
    36    10    12    1
    37    20    13   ar
    38     6     1   ar
    39    34    27   ar
    40    12     4    1
    41    16    21    1
    42    16    22    1
    43    19    23    1
    44    19    24    1
@<TRIPOS>MOLECULE
*****
 41 44 0 0 0
SMALL
GASTEIGER

@<TRIPOS>ATOM
      1 C          64.1197   89.2711   13.1602 C.ar    1  UNL1        0.0053
      2 C          64.3767   89.0775   14.6253 C.ar    1  UNL1        0.0033
      3 C          64.1367   87.7390   15.2584 C.ar    1  UNL1        0.0382
      4 C          63.6397   86.5941   14.4264 C.ar    1  UNL1        0.1529
      5 C          63.3827   86.7876   12.9613 C.ar    1  UNL1        0.0881
      6 C          63.6227   88.1261   12.3282 C.ar    1  UNL1        0.0181
      7 N          62.8858   85.6427   12.1294 N.am    1  UNL1       -0.2529
      8 C          62.6458   84.3042   12.7625 C.2     1  UNL1        0.2697
      9 O          62.1489   83.1593   11.9305 O.2     1  UNL1       -0.2704
     10 C          62.9028   84.1106   14.2276 C.3     1  UNL1        0.2199
     11 C          62.9988   83.4384   15.5651 C.3     1  UNL1        0.0579
     12 O          63.3998   85.2556   15.0596 O.3     1  UNL1       -0.4686
     13 C          65.2625   91.6040   13.1947 C.ar    1  UNL1        0.0645
     14 N          65.5025   92.9425   12.5616 N.ar    1  UNL1       -0.2183
     15 C          64.8396   93.2866   11.2608 C.ar    1  UNL1        0.2145
     16 N          65.0796   94.6250   10.6276 N.pl3   1  UNL1       -0.3274
     17 N          63.9367   92.2921   10.5930 N.ar    1  UNL1       -0.1995
     18 C          63.6967   90.9536   11.2262 C.ar    1  UNL1        0.1293
     19 N          62.7939   89.9591   10.5585 N.pl3   1  UNL1       -0.3425
     20 C          64.3596   90.6096   12.5270 C.ar    1  UNL1        0.0449
     21 H          65.6722   95.2777   11.0659 H       1  UNL1        0.1452
     22 H          64.6445   94.8509    9.7739 H       1  UNL1        0.1452
     23 H          62.3588   90.1849    9.7047 H       1  UNL1        0.1437
     24 H          62.6363   89.0806   10.9740 H       1  UNL1        0.1437
     25 C          67.3398   91.6883   14.7530 C.3     1  UNL1        0.0067
     26 C          65.9254   91.2600   14.4956 C.3     1  UNL1        0.0460
     27 C          62.4392   82.7323   13.8601 C.ar    1  UNL1        0.0264
     28 C          61.2036   82.1632   14.4922 C.ar    1  UNL1        0.0293
     29 C          60.7400   80.7847   14.1246 C.ar    1  UNL1        0.1422
     30 F          59.5043   80.2157   14.7568 F       1  UNL1       -0.2041
     31 C          61.5119   79.9754   13.1252 C.ar    1  UNL1        0.0592
     32 C          62.7475   80.5445   12.4932 C.ar    1  UNL1        0.1422
     33 F          63.5195   79.7351   11.4936 F       1  UNL1       -0.2041
     34 C          63.2112   81.9229   12.8606 C.ar    1  UNL1        0.0293
     35 C          62.6288   85.8363   10.6643 C.3     1  UNL1        0.0987
     36 C          61.2450   86.1553   10.1813 C.3     1  UNL1        0.0306
     37 C          61.0356   86.6562    8.7829 C.3     1  UNL1        0.1051
     38 C          61.0157   85.6903    7.6355 C.3     1  UNL1        0.3978
     39 F          60.9958   84.7244    6.4880 F       1  UNL1       -0.1700
     40 F          62.5097   85.5764    7.7054 F       1  UNL1       -0.1700
     41 F          59.5216   85.8041    7.5656 F       1  UNL1       -0.1700
@<TRIPOS>BOND
     1    25    26    1
     2    26    13    1
     3    13    14   ar
     4    14    15   ar
     5    15    16    1
     6    15    17   ar
     7    17    18   ar
     8    18    19    1
     9    18    20   ar
    10    20     1    1
    11     1     2   ar
    12     2     3   ar
    13     3     4   ar
    14     4     5   ar
    15     5     6   ar
    16     5     7    1
    17     7    35    1
    18    35    36    1
    19    36    37    1
    20    37    38    1
    21    38    39    1
    22    38    40    1
    23    38    41    1
    24     7     8   am
    25     8     9    2
    26     8    10    1
    27    10    11    1
    28    10    27    1
    29    27    28   ar
    30    28    29   ar
    31    29    30    1
    32    29    31   ar
    33    31    32   ar
    34    32    33    1
    35    32    34   ar
    36    10    12    1
    37    20    13   ar
    38     6     1   ar
    39    34    27   ar
    40    12     4    1
    41    16    21    1
    42    16    22    1
    43    19    23    1
    44    19    24    1
@<TRIPOS>MOLECULE
*****
 41 44 0 0 0
SMALL
GASTEIGER

@<TRIPOS>ATOM
      1 C          65.2277   90.5063   14.0579 C.ar    1  UNL1        0.0053
      2 C          64.9744   89.2258   14.7967 C.ar    1  UNL1        0.0033
      3 C          64.0930   88.1731   14.1925 C.ar    1  UNL1        0.0382
      4 C          63.4650   88.4010   12.8495 C.ar    1  UNL1        0.1529
      5 C          63.7183   89.6816   12.1107 C.ar    1  UNL1        0.0881
      6 C          64.5997   90.7343   12.7149 C.ar    1  UNL1        0.0181
      7 N          63.0903   89.9095   10.7677 N.am    1  UNL1       -0.2529
      8 C          62.2089   88.8569   10.1636 C.2     1  UNL1        0.2697
      9 O          61.5809   89.0848    8.8206 O.2     1  UNL1       -0.2704
     10 C          61.9556   87.5762   10.9024 C.3     1  UNL1        0.2199
     11 C          61.4194   86.2100   11.2122 C.3     1  UNL1        0.0579
     12 O          62.5836   87.3483   12.2454 O.3     1  UNL1       -0.4686
     13 C          67.4067   91.9203   14.0018 C.ar    1  UNL1        0.0645
     14 N          68.2880   92.9730   14.6059 N.ar    1  UNL1       -0.2183
     15 C          67.8719   93.6645   15.8703 C.ar    1  UNL1        0.2145
     16 N          68.7533   94.7172   16.4744 N.pl3   1  UNL1       -0.3274
     17 N          66.5744   93.3033   16.5306 N.ar    1  UNL1       -0.1995
     18 C          65.6930   92.2505   15.9264 C.ar    1  UNL1        0.1293
     19 N          64.3954   91.8893   16.5867 N.pl3   1  UNL1       -0.3425
     20 C          66.1091   91.5591   14.6621 C.ar    1  UNL1        0.0449
     21 H          69.6049   94.9542   16.0411 H       1  UNL1        0.1452
     22 H          68.4802   95.1710   17.3043 H       1  UNL1        0.1452
     23 H          64.1223   92.3432   17.4165 H       1  UNL1        0.1437
     24 H          63.8170   91.1984   16.1902 H       1  UNL1        0.1437
     25 C          68.6016   91.9756   11.6955 C.3     1  UNL1        0.0067
     26 C          67.8228   91.2287   12.7374 C.3     1  UNL1        0.0460
     27 C          61.1414   87.3297    9.6670 C.ar    1  UNL1        0.0264
     28 C          60.0335   88.2714    9.2986 C.ar    1  UNL1        0.0293
     29 C          59.2192   88.0248    8.0631 C.ar    1  UNL1        0.1422
     30 F          58.1113   88.9666    7.6948 F       1  UNL1       -0.2041
     31 C          59.5129   86.8366    7.1961 C.ar    1  UNL1        0.0592
     32 C          60.6208   85.8949    7.5645 C.ar    1  UNL1        0.1422
     33 F          60.9144   84.7066    6.6975 F       1  UNL1       -0.2041
     34 C          61.4350   86.1414    8.7999 C.ar    1  UNL1        0.0293
     35 C          63.3436   91.1901   10.0289 C.3     1  UNL1        0.0987
     36 C          64.0844   92.3089   10.6994 C.3     1  UNL1        0.0306
     37 C          65.4043   92.7675   10.1538 C.3     1  UNL1        0.1051
     38 C          66.0150   94.0467   10.6444 C.3     1  UNL1        0.3978
     39 F          66.6257   95.3259   11.1350 F       1  UNL1       -0.1700
     40 F          66.5570   94.3145    9.2716 F       1  UNL1       -0.1700
     41 F          65.4730   93.7789   12.0172 F       1  UNL1       -0.1700
@<TRIPOS>BOND
     1    25    26    1
     2    26    13    1
     3    13    14   ar
     4    14    15   ar
     5    15    16    1
     6    15    17   ar
     7    17    18   ar
     8    18    19    1
     9    18    20   ar
    10    20     1    1
    11     1     2   ar
    12     2     3   ar
    13     3     4   ar
    14     4     5   ar
    15     5     6   ar
    16     5     7    1
    17     7    35    1
    18    35    36    1
    19    36    37    1
    20    37    38    1
    21    38    39    1
    22    38    40    1
    23    38    41    1
    24     7     8   am
    25     8     9    2
    26     8    10    1
    27    10    11    1
    28    10    27    1
    29    27    28   ar
    30    28    29   ar
    31    29    30    1
    32    29    31   ar
    33    31    32   ar
    34    32    33    1
    35    32    34   ar
    36    10    12    1
    37    20    13   ar
    38     6     1   ar
    39    34    27   ar
    40    12     4    1
    41    16    21    1
    42    16    22    1
    43    19    23    1
    44    19    24    1
@<TRIPOS>MOLECULE
*****
 41 44 0 0 0
SMALL
GASTEIGER

@<TRIPOS>ATOM
      1 C          64.6647   90.1783   13.6469 C.ar    1  UNL1        0.0053
      2 C          63.7164   90.4762   12.5236 C.ar    1  UNL1        0.0033
      3 C          62.9756   89.3585   11.8512 C.ar    1  UNL1        0.0382
      4 C          63.1831   87.9431   12.3022 C.ar    1  UNL1        0.1529
      5 C          64.1314   87.6452   13.4256 C.ar    1  UNL1        0.0881
      6 C          64.8722   88.7628   14.0979 C.ar    1  UNL1        0.0181
      7 N          64.3389   86.2298   13.8766 N.am    1  UNL1       -0.2529
      8 C          63.5981   85.1121   13.2042 C.2     1  UNL1        0.2697
      9 O          63.8056   83.6967   13.6552 O.2     1  UNL1       -0.2704
     10 C          62.6497   85.4100   12.0808 C.3     1  UNL1        0.2199
     11 C          61.6533   85.1897   10.9814 C.3     1  UNL1        0.0579
     12 O          62.4422   86.8254   11.6298 O.3     1  UNL1       -0.4686
     13 C          66.5449   91.9711   13.6150 C.ar    1  UNL1        0.0645
     14 N          67.2857   93.0886   14.2873 N.ar    1  UNL1       -0.2183
     15 C          66.8873   93.5312   15.6641 C.ar    1  UNL1        0.2145
     16 N          67.6281   94.6488   16.3364 N.pl3   1  UNL1       -0.3274
     17 N          65.7479   92.8561   16.3685 N.ar    1  UNL1       -0.1995
     18 C          65.0071   91.7384   15.6960 C.ar    1  UNL1        0.1293
     19 N          63.8677   91.0633   16.4004 N.pl3   1  UNL1       -0.3425
     20 C          65.4055   91.2959   14.3193 C.ar    1  UNL1        0.0449
     21 H          68.3759   95.0918   15.8741 H       1  UNL1        0.1452
     22 H          67.3666   94.9392   17.2400 H       1  UNL1        0.1452
     23 H          63.6062   91.3537   17.3040 H       1  UNL1        0.1437
     24 H          63.3815   90.3298   15.9591 H       1  UNL1        0.1437
     25 C          66.7211   92.4363   11.0649 C.3     1  UNL1        0.0067
     26 C          66.9434   91.5285   12.2382 C.3     1  UNL1        0.0460
     27 C          62.5111   83.9180   12.1500 C.ar    1  UNL1        0.0264
     28 C          61.8701   83.2790   13.3461 C.ar    1  UNL1        0.0293
     29 C          61.7315   81.7870   13.4153 C.ar    1  UNL1        0.1422
     30 F          61.0904   81.1480   14.6115 F       1  UNL1       -0.2041
     31 C          62.2340   80.9340   12.2885 C.ar    1  UNL1        0.0592
     32 C          62.8751   81.5731   11.0924 C.ar    1  UNL1        0.1422
     33 F          63.3776   80.7200    9.9655 F       1  UNL1       -0.2041
     34 C          63.0137   83.0650   11.0231 C.ar    1  UNL1        0.0293
     35 C          65.2872   85.9319   14.9999 C.3     1  UNL1        0.0987
     36 C          64.7551   85.5418   16.3471 C.3     1  UNL1        0.0306
     37 C          63.3451   85.8868   16.7252 C.3     1  UNL1        0.1051
     38 C          63.0747   87.0550   17.6264 C.3     1  UNL1        0.3978
     39 F          62.8043   88.2233   18.5275 F       1  UNL1       -0.1700
     40 F          62.6773   86.1150   18.7257 F       1  UNL1       -0.1700
     41 F          63.4722   87.9950   16.5270 F       1  UNL1       -0.1700
@<TRIPOS>BOND
     1    25    26    1
     2    26    13    1
     3    13    14   ar
     4    14    15   ar
     5    15    16    1
     6    15    17   ar
     7    17    18   ar
     8    18    19    1
     9    18    20   ar
    10    20     1    1
    11     1     2   ar
    12     2     3   ar
    13     3     4   ar
    14     4     5   ar
    15     5     6   ar
    16     5     7    1
    17     7    35    1
    18    35    36    1
    19    36    37    1
    20    37    38    1
    21    38    39    1
    22    38    40    1
    23    38    41    1
    24     7     8   am
    25     8     9    2
    26     8    10    1
    27    10    11    1
    28    10    27    1
    29    27    28   ar
    30    28    29   ar
    31    29    30    1
    32    29    31   ar
    33    31    32   ar
    34    32    33    1
    35    32    34   ar
    36    10    12    1
    37    20    13   ar
    38     6     1   ar
    39    34    27   ar
    40    12     4    1
    41    16    21    1
    42    16    22    1
    43    19    23    1
    44    19    24    1
@<TRIPOS>MOLECULE
*****
 41 44 0 0 0
SMALL
GASTEIGER

@<TRIPOS>ATOM
      1 C          62.7516   84.2413   11.7443 C.ar    1  UNL1        0.0053
      2 C          61.9562   85.0530   10.7654 C.ar    1  UNL1        0.0033
      3 C          61.9754   86.5508   10.8427 C.ar    1  UNL1        0.0382
      4 C          62.7899   87.2370   11.8990 C.ar    1  UNL1        0.1529
      5 C          63.5854   86.4252   12.8779 C.ar    1  UNL1        0.0881
      6 C          63.5662   84.9274   12.8006 C.ar    1  UNL1        0.0181
      7 N          64.3999   87.1114   13.9342 N.am    1  UNL1       -0.2529
      8 C          64.4191   88.6092   14.0115 C.2     1  UNL1        0.2697
      9 O          65.2337   89.2954   15.0678 O.2     1  UNL1       -0.2704
     10 C          63.6236   89.4210   13.0325 C.3     1  UNL1        0.2199
     11 C          63.0408   90.6151   12.3365 C.3     1  UNL1        0.0579
     12 O          62.8091   88.7349   11.9763 O.3     1  UNL1       -0.4686
     13 C          62.1902   81.9401   12.8119 C.ar    1  UNL1        0.0645
     14 N          62.1710   80.4423   12.7347 N.ar    1  UNL1       -0.2183
     15 C          62.6942   79.7475   11.5125 C.ar    1  UNL1        0.2145
     16 N          62.6751   78.2497   11.4353 N.pl3   1  UNL1       -0.3274
     17 N          63.2366   80.5507   10.3676 N.ar    1  UNL1       -0.1995
     18 C          63.2557   82.0487   10.4449 C.ar    1  UNL1        0.1293
     19 N          63.7980   82.8518    9.3000 N.pl3   1  UNL1       -0.3425
     20 C          62.7325   82.7433   11.6670 C.ar    1  UNL1        0.0449
     21 H          62.3191   77.7225   12.1867 H       1  UNL1        0.1452
     22 H          63.0185   77.7937   10.6331 H       1  UNL1        0.1452
     23 H          64.1414   82.3959    8.4979 H       1  UNL1        0.1437
     24 H          63.8106   83.8350    9.3507 H       1  UNL1        0.1437
     25 C          62.5528   82.8157   15.2310 C.3     1  UNL1        0.0067
     26 C          61.6670   82.6349   14.0341 C.3     1  UNL1        0.0460
     27 C          64.2358   90.5218   13.8470 C.ar    1  UNL1        0.0264
     28 C          65.3144   91.3809   13.2566 C.ar    1  UNL1        0.0293
     29 C          65.9265   92.4817   14.0712 C.ar    1  UNL1        0.1422
     30 F          67.0051   93.3408   13.4806 F       1  UNL1       -0.2041
     31 C          65.4602   92.7235   15.4761 C.ar    1  UNL1        0.0592
     32 C          64.3816   91.8644   16.0665 C.ar    1  UNL1        0.1422
     33 F          63.9152   92.1061   17.4716 F       1  UNL1       -0.2041
     34 C          63.7694   90.7636   15.2521 C.ar    1  UNL1        0.0293
     35 C          65.1954   86.2997   14.9131 C.3     1  UNL1        0.0987
     36 C          64.5155   85.6700   16.0927 C.3     1  UNL1        0.0306
     37 C          63.1311   86.1003   16.4782 C.3     1  UNL1        0.1051
     38 C          62.9038   86.8239   17.7723 C.3     1  UNL1        0.3978
     39 F          62.6764   87.5475   19.0664 F       1  UNL1       -0.1700
     40 F          63.4578   88.0798   17.1674 F       1  UNL1       -0.1700
     41 F          62.3498   85.5681   18.3772 F       1  UNL1       -0.1700
@<TRIPOS>BOND
     1    25    26    1
     2    26    13    1
     3    13    14   ar
     4    14    15   ar
     5    15    16    1
     6    15    17   ar
     7    17    18   ar
     8    18    19    1
     9    18    20   ar
    10    20     1    1
    11     1     2   ar
    12     2     3   ar
    13     3     4   ar
    14     4     5   ar
    15     5     6   ar
    16     5     7    1
    17     7    35    1
    18    35    36    1
    19    36    37    1
    20    37    38    1
    21    38    39    1
    22    38    40    1
    23    38    41    1
    24     7     8   am
    25     8     9    2
    26     8    10    1
    27    10    11    1
    28    10    27    1
    29    27    28   ar
    30    28    29   ar
    31    29    30    1
    32    29    31   ar
    33    31    32   ar
    34    32    33    1
    35    32    34   ar
    36    10    12    1
    37    20    13   ar
    38     6     1   ar
    39    34    27   ar
    40    12     4    1
    41    16    21    1
    42    16    22    1
    43    19    23    1
    44    19    24    1
@<TRIPOS>MOLECULE
*****
 41 44 0 0 0
SMALL
GASTEIGER

@<TRIPOS>ATOM
      1 C          62.6500   84.2919   12.4783 C.ar    1  UNL1        0.0053
      2 C          61.8994   84.9489   11.3581 C.ar    1  UNL1        0.0033
      3 C          61.9907   86.4333   11.1633 C.ar    1  UNL1        0.0382
      4 C          62.8325   87.2608   12.0888 C.ar    1  UNL1        0.1529
      5 C          63.5831   86.6039   13.2091 C.ar    1  UNL1        0.0881
      6 C          63.4918   85.1194   13.4038 C.ar    1  UNL1        0.0181
      7 N          64.4249   87.4314   14.1346 N.am    1  UNL1       -0.2529
      8 C          64.5162   88.9159   13.9398 C.2     1  UNL1        0.2697
      9 O          65.3581   89.7434   14.8653 O.2     1  UNL1       -0.2704
     10 C          63.7656   89.5729   12.8195 C.3     1  UNL1        0.2199
     11 C          63.2446   90.6468   11.9111 C.3     1  UNL1        0.0579
     12 O          62.9238   88.7454   11.8940 O.3     1  UNL1       -0.4686
     13 C          62.8837   81.8808   11.5392 C.ar    1  UNL1        0.0645
     14 N          62.7925   80.3963   11.7340 N.ar    1  UNL1       -0.2183
     15 C          62.3763   79.8383   13.0627 C.ar    1  UNL1        0.2145
     16 N          62.2850   78.3539   13.2575 N.pl3   1  UNL1       -0.3274
     17 N          62.0513   80.7649   14.1967 N.ar    1  UNL1       -0.1995
     18 C          62.1425   82.2495   14.0018 C.ar    1  UNL1        0.1293
     19 N          61.8175   83.1761   15.1358 N.pl3   1  UNL1       -0.3425
     20 C          62.5587   82.8074   12.6732 C.ar    1  UNL1        0.0449
     21 H          62.4983   77.7457   12.5132 H       1  UNL1        0.1452
     22 H          62.0119   77.9877   14.1295 H       1  UNL1        0.1452
     23 H          61.5443   82.8099   16.0079 H       1  UNL1        0.1437
     24 H          61.8774   84.1504   15.0080 H       1  UNL1        0.1437
     25 C          64.6645   83.0388   10.0432 C.3     1  UNL1        0.0067
     26 C          63.3000   82.4387   10.2105 C.3     1  UNL1        0.0460
     27 C          64.4265   90.7733   13.4295 C.ar    1  UNL1        0.0264
     28 C          64.2263   91.0818   14.8837 C.ar    1  UNL1        0.0293
     29 C          64.8872   92.2823   15.4937 C.ar    1  UNL1        0.1422
     30 F          64.6869   92.5906   16.9480 F       1  UNL1       -0.2041
     31 C          65.7482   93.1743   14.6496 C.ar    1  UNL1        0.0592
     32 C          65.9485   92.8659   13.1954 C.ar    1  UNL1        0.1422
     33 F          66.8096   93.7579   12.3511 F       1  UNL1       -0.2041
     34 C          65.2876   91.6654   12.5853 C.ar    1  UNL1        0.0293
     35 C          65.1755   86.7744   15.2548 C.3     1  UNL1        0.0987
     36 C          64.4276   86.0600   16.3412 C.3     1  UNL1        0.0306
     37 C          63.0590   86.5261   16.7411 C.3     1  UNL1        0.1051
     38 C          62.8039   86.9851   18.1461 C.3     1  UNL1        0.3978
     39 F          62.5488   87.4442   19.5512 F       1  UNL1       -0.1700
     40 F          62.3288   85.6095   18.5093 F       1  UNL1       -0.1700
     41 F          63.2790   88.3608   17.7830 F       1  UNL1       -0.1700
@<TRIPOS>BOND
     1    25    26    1
     2    26    13    1
     3    13    14   ar
     4    14    15   ar
     5    15    16    1
     6    15    17   ar
     7    17    18   ar
     8    18    19    1
     9    18    20   ar
    10    20     1    1
    11     1     2   ar
    12     2     3   ar
    13     3     4   ar
    14     4     5   ar
    15     5     6   ar
    16     5     7    1
    17     7    35    1
    18    35    36    1
    19    36    37    1
    20    37    38    1
    21    38    39    1
    22    38    40    1
    23    38    41    1
    24     7     8   am
    25     8     9    2
    26     8    10    1
    27    10    11    1
    28    10    27    1
    29    27    28   ar
    30    28    29   ar
    31    29    30    1
    32    29    31   ar
    33    31    32   ar
    34    32    33    1
    35    32    34   ar
    36    10    12    1
    37    20    13   ar
    38     6     1   ar
    39    34    27   ar
    40    12     4    1
    41    16    21    1
    42    16    22    1
    43    19    23    1
    44    19    24    1
@<TRIPOS>MOLECULE
*****
 41 44 0 0 0
SMALL
GASTEIGER

@<TRIPOS>ATOM
      1 C          63.7903   89.1637   13.5376 C.ar    1  UNL1        0.0053
      2 C          63.0388   89.4002   12.2612 C.ar    1  UNL1        0.0033
      3 C          62.5738   88.2359   11.4379 C.ar    1  UNL1        0.0382
      4 C          62.8602   86.8349   11.8910 C.ar    1  UNL1        0.1529
      5 C          63.6117   86.5984   13.1674 C.ar    1  UNL1        0.0881
      6 C          64.0768   87.7627   13.9907 C.ar    1  UNL1        0.0181
      7 N          63.8982   85.1974   13.6205 N.am    1  UNL1       -0.2529
      8 C          63.4332   84.0330   12.7971 C.2     1  UNL1        0.2697
      9 O          63.7196   82.6321   13.2502 O.2     1  UNL1       -0.2704
     10 C          62.6816   84.2695   11.5207 C.3     1  UNL1        0.2199
     11 C          61.9401   83.9853   10.2481 C.3     1  UNL1        0.0579
     12 O          62.3951   85.6705   11.0676 O.3     1  UNL1       -0.4686
     13 C          65.1919   91.3391   13.7686 C.ar    1  UNL1        0.0645
     14 N          65.6570   92.5035   14.5919 N.ar    1  UNL1       -0.2183
     15 C          65.1856   92.6569   16.0077 C.ar    1  UNL1        0.2145
     16 N          65.6507   93.8213   16.8310 N.pl3   1  UNL1       -0.3274
     17 N          64.2491   91.6459   16.6001 N.ar    1  UNL1       -0.1995
     18 C          63.7840   90.4815   15.7767 C.ar    1  UNL1        0.1293
     19 N          62.8475   89.4705   16.3691 N.pl3   1  UNL1       -0.3425
     20 C          64.2554   90.3281   14.3610 C.ar    1  UNL1        0.0449
     21 H          66.2653   94.4848   16.4422 H       1  UNL1        0.1452
     22 H          65.3413   93.9220   17.7602 H       1  UNL1        0.1452
     23 H          62.5381   89.5712   17.2982 H       1  UNL1        0.1437
     24 H          62.5423   88.7063   15.8287 H       1  UNL1        0.1437
     25 C          65.4805   92.3089   11.3756 C.3     1  UNL1        0.0067
     26 C          65.6633   91.1857   12.3528 C.3     1  UNL1        0.0460
     27 C          62.7106   82.7699   11.5318 C.ar    1  UNL1        0.0264
     28 C          63.2563   82.0215   10.3520 C.ar    1  UNL1        0.0293
     29 C          63.2853   80.5218   10.3631 C.ar    1  UNL1        0.1422
     30 F          63.8311   79.7735    9.1832 F       1  UNL1       -0.2041
     31 C          62.7685   79.7705   11.5540 C.ar    1  UNL1        0.0592
     32 C          62.2228   80.5189   12.7339 C.ar    1  UNL1        0.1422
     33 F          61.7060   79.7676   13.9249 F       1  UNL1       -0.2041
     34 C          62.1938   82.0186   12.7228 C.ar    1  UNL1        0.0293
     35 C          64.6497   84.9608   14.8968 C.3     1  UNL1        0.0987
     36 C          63.9122   84.5478   16.1359 C.3     1  UNL1        0.0306
     37 C          62.5994   85.1889   16.4762 C.3     1  UNL1        0.1051
     38 C          62.5256   86.2114   17.5712 C.3     1  UNL1        0.3978
     39 F          62.4518   87.2339   18.6662 F       1  UNL1       -0.1700
     40 F          61.1028   86.5070   17.1993 F       1  UNL1       -0.1700
     41 F          63.9484   85.9159   17.9430 F       1  UNL1       -0.1700
@<TRIPOS>BOND
     1    25    26    1
     2    26    13    1
     3    13    14   ar
     4    14    15   ar
     5    15    16    1
     6    15    17   ar
     7    17    18   ar
     8    18    19    1
     9    18    20   ar
    10    20     1    1
    11     1     2   ar
    12     2     3   ar
    13     3     4   ar
    14     4     5   ar
    15     5     6   ar
    16     5     7    1
    17     7    35    1
    18    35    36    1
    19    36    37    1
    20    37    38    1
    21    38    39    1
    22    38    40    1
    23    38    41    1
    24     7     8   am
    25     8     9    2
    26     8    10    1
    27    10    11    1
    28    10    27    1
    29    27    28   ar
    30    28    29   ar
    31    29    30    1
    32    29    31   ar
    33    31    32   ar
    34    32    33    1
    35    32    34   ar
    36    10    12    1
    37    20    13   ar
    38     6     1   ar
    39    34    27   ar
    40    12     4    1
    41    16    21    1
    42    16    22    1
    43    19    23    1
    44    19    24    1
@<TRIPOS>MOLECULE
*****
 41 44 0 0 0
SMALL
GASTEIGER

@<TRIPOS>ATOM
      1 C          64.5955   89.9788   13.7569 C.ar    1  UNL1        0.0053
      2 C          63.6361   90.2777   12.6433 C.ar    1  UNL1        0.0033
      3 C          62.9145   89.1577   11.9542 C.ar    1  UNL1        0.0382
      4 C          63.1523   87.7388   12.3787 C.ar    1  UNL1        0.1529
      5 C          64.1118   87.4399   13.4922 C.ar    1  UNL1        0.0881
      6 C          64.8334   88.5599   14.1813 C.ar    1  UNL1        0.0181
      7 N          64.3496   86.0210   13.9167 N.am    1  UNL1       -0.2529
      8 C          63.6280   84.9010   13.2276 C.2     1  UNL1        0.2697
      9 O          63.8659   83.4821   13.6521 O.2     1  UNL1       -0.2704
     10 C          62.6685   85.1999   12.1140 C.3     1  UNL1        0.2199
     11 C          61.6714   84.9795   11.0153 C.3     1  UNL1        0.0579
     12 O          62.4306   86.6188   11.6895 O.3     1  UNL1       -0.4686
     13 C          64.7957   91.6406   15.7439 C.ar    1  UNL1        0.0645
     14 N          65.5173   92.7606   16.4330 N.ar    1  UNL1       -0.2183
     15 C          66.7604   93.3387   15.8243 C.ar    1  UNL1        0.2145
     16 N          67.4820   94.4587   16.5135 N.pl3   1  UNL1       -0.3274
     17 N          67.2819   92.7969   14.5264 N.ar    1  UNL1       -0.1995
     18 C          66.5602   91.6769   13.8373 C.ar    1  UNL1        0.1293
     19 N          67.0817   91.1350   12.5394 N.pl3   1  UNL1       -0.3425
     20 C          65.3172   91.0988   14.4460 C.ar    1  UNL1        0.0449
     21 H          67.1398   94.8143   17.3653 H       1  UNL1        0.1452
     22 H          68.2979   94.8381   16.1139 H       1  UNL1        0.1452
     23 H          67.8975   91.5145   12.1399 H       1  UNL1        0.1437
     24 H          66.6081   90.4000   12.0871 H       1  UNL1        0.1437
     25 C          63.5380   89.6359   16.8159 C.3     1  UNL1        0.0067
     26 C          63.5526   91.0625   16.3526 C.3     1  UNL1        0.0460
     27 C          62.5601   83.7045   12.1569 C.ar    1  UNL1        0.0264
     28 C          61.9129   83.0328   13.3317 C.ar    1  UNL1        0.0293
     29 C          61.8045   81.5373   13.3746 C.ar    1  UNL1        0.1422
     30 F          61.1573   80.8658   14.5495 F       1  UNL1       -0.2041
     31 C          62.3432   80.7135   12.2428 C.ar    1  UNL1        0.0592
     32 C          62.9903   81.3852   11.0680 C.ar    1  UNL1        0.1422
     33 F          63.5290   80.5613    9.9362 F       1  UNL1       -0.2041
     34 C          63.0988   82.8806   11.0250 C.ar    1  UNL1        0.0293
     35 C          65.3091   85.7221   15.0303 C.3     1  UNL1        0.0987
     36 C          64.8129   85.6274   16.4426 C.3     1  UNL1        0.0306
     37 C          63.4985   84.9653   16.7330 C.3     1  UNL1        0.1051
     38 C          62.2731   85.7994   16.9625 C.3     1  UNL1        0.3978
     39 F          61.0477   86.6335   17.1920 F       1  UNL1       -0.1700
     40 F          62.9954   86.5669   18.0299 F       1  UNL1       -0.1700
     41 F          61.5508   85.0319   15.8951 F       1  UNL1       -0.1700
@<TRIPOS>BOND
     1    25    26    1
     2    26    13    1
     3    13    14   ar
     4    14    15   ar
     5    15    16    1
     6    15    17   ar
     7    17    18   ar
     8    18    19    1
     9    18    20   ar
    10    20     1    1
    11     1     2   ar
    12     2     3   ar
    13     3     4   ar
    14     4     5   ar
    15     5     6   ar
    16     5     7    1
    17     7    35    1
    18    35    36    1
    19    36    37    1
    20    37    38    1
    21    38    39    1
    22    38    40    1
    23    38    41    1
    24     7     8   am
    25     8     9    2
    26     8    10    1
    27    10    11    1
    28    10    27    1
    29    27    28   ar
    30    28    29   ar
    31    29    30    1
    32    29    31   ar
    33    31    32   ar
    34    32    33    1
    35    32    34   ar
    36    10    12    1
    37    20    13   ar
    38     6     1   ar
    39    34    27   ar
    40    12     4    1
    41    16    21    1
    42    16    22    1
    43    19    23    1
    44    19    24    1
