@<TRIPOS>MOLECULE
*****
 32 36 0 0 0
SMALL
GASTEIGER

@<TRIPOS>ATOM
      1 C          61.4512   87.1660   10.3042 C.ar    1  UNL1        0.0719
      2 C          62.1143   85.9143   10.7978 C.ar    1  UNL1        0.1049
      3 N          62.8584   86.2492   12.0564 N.ar    1  UNL1       -0.2242
      4 N          63.6947   85.4143   12.9803 N.ar    1  UNL1       -0.1422
      5 C          64.3279   86.0382   14.1885 C.ar    1  UNL1        0.2211
      6 N          64.1247   87.4969   14.4728 N.ar    1  UNL1       -0.2060
      7 C          63.2884   88.3318   13.5490 C.ar    1  UNL1        0.1513
      8 C          62.6553   87.7079   12.3408 C.ar    1  UNL1        0.1106
      9 C          61.7856   88.2745   11.2579 C.ar    1  UNL1        0.0040
     10 C          59.3060   88.2221    7.2468 C.ar    1  UNL1        0.3087
     11 N          59.2884   86.7283    7.1111 N.ar    1  UNL1       -0.0923
     12 N          60.0899   86.1509    8.2399 N.ar    1  UNL1       -0.1057
     13 C          60.6028   87.2878    9.0733 C.ar    1  UNL1        0.2525
     14 O          60.1183   88.5678    8.4595 O.2     1  UNL1       -0.4048
     15 C          59.4094   90.3358    5.7396 C.3     1  UNL1        0.1124
     16 N          58.6299   89.1987    6.3307 N.pl3   1  UNL1       -0.2854
     17 H          57.6746   89.0933    6.1173 H       1  UNL1        0.1512
     18 C          61.3302   89.6995   11.1479 C.3     1  UNL1        0.0241
     19 C          62.1623   90.6970   10.3976 C.3     1  UNL1        0.0047
     20 C          60.0430   90.1270   11.7882 C.3     1  UNL1        0.0047
     21 N          63.0853   89.7905   13.8333 N.pl3   1  UNL1       -0.2967
     22 H          62.1854   90.1306   14.0424 H       1  UNL1        0.1535
     23 C          64.2533   90.7310   13.7991 C.2     1  UNL1        0.0785
     24 C          64.6518   91.3855   12.5095 C.2     1  UNL1        0.2463
     25 N          65.8198   92.3260   12.4754 N.2     1  UNL1       -0.0298
     26 C          66.5893   92.6121   13.7308 C.2     1  UNL1        0.3716
     27 N          67.7763   93.4879   14.0028 N.2     1  UNL1       -0.0392
     28 C          68.1114   93.3747   15.4605 C.2     1  UNL1        0.1714
     29 C          69.2301   94.0830   16.1656 C.3     1  UNL1        0.0824
     30 C          67.1315   92.4290   16.0893 C.2     1  UNL1        0.0457
     31 C          66.1908   91.9577   15.0203 C.2     1  UNL1        0.0753
     32 C          65.0228   91.0171   15.0545 C.3     1  UNL1        0.0794
@<TRIPOS>BOND
     1    15    16    1
     2    16    10    1
     3    10    11   ar
     4    11    12   ar
     5    12    13   ar
     6    13     1    1
     7     1     2   ar
     8     2     3   ar
     9     3     4   ar
    10     4     5   ar
    11     5     6   ar
    12     6     7   ar
    13     7    21    1
    14    21    23    1
    15    23    24    2
    16    24    25    1
    17    25    26    2
    18    26    27    1
    19    27    28    2
    20    28    29    1
    21    28    30    1
    22    30    31    2
    23    31    32    1
    24     7     8   ar
    25     8     9   ar
    26     9    18    1
    27    18    19    1
    28    18    20    1
    29    13    14   ar
    30    14    10   ar
    31     9     1   ar
    32     8     3   ar
    33    32    23    1
    34    31    26    1
    35    16    17    1
    36    21    22    1
@<TRIPOS>MOLECULE
*****
 32 36 0 0 0
SMALL
GASTEIGER

@<TRIPOS>ATOM
      1 C          61.4823   86.9938   10.3591 C.ar    1  UNL1        0.0719
      2 C          62.1307   85.7256   10.8297 C.ar    1  UNL1        0.1049
      3 N          62.8968   86.0337   12.0819 N.ar    1  UNL1       -0.2242
      4 N          63.7310   85.1746   12.9852 N.ar    1  UNL1       -0.1422
      5 C          64.3905   85.7740   14.1917 C.ar    1  UNL1        0.2211
      6 N          64.2157   87.2326   14.4950 N.ar    1  UNL1       -0.2060
      7 C          63.3814   88.0917   13.5918 C.ar    1  UNL1        0.1513
      8 C          62.7220   87.4923   12.3852 C.ar    1  UNL1        0.1106
      9 C          61.8478   88.0856   11.3204 C.ar    1  UNL1        0.0040
     10 C          59.3180   88.1204    7.3405 C.ar    1  UNL1        0.3087
     11 N          59.2678   86.6286    7.1923 N.ar    1  UNL1       -0.0923
     12 N          60.0725   86.0250    8.3051 N.ar    1  UNL1       -0.1057
     13 C          60.6200   87.1437    9.1409 C.ar    1  UNL1        0.2525
     14 O          60.1537   88.4388    8.5447 O.2     1  UNL1       -0.4048
     15 C          59.4491   90.2317    5.8321 C.3     1  UNL1        0.1124
     16 N          58.6498   89.1186    6.4421 N.pl3   1  UNL1       -0.2854
     17 H          57.6866   89.0432    6.2528 H       1  UNL1        0.1512
     18 C          61.4151   89.5192   11.2325 C.3     1  UNL1        0.0241
     19 C          62.1431   90.4682   10.3272 C.3     1  UNL1        0.0047
     20 C          60.2545   90.0038   12.0497 C.3     1  UNL1        0.0047
     21 N          63.2067   89.5503   13.8951 N.pl3   1  UNL1       -0.2967
     22 H          62.3939   89.8638   14.3538 H       1  UNL1        0.1535
     23 C          64.2702   90.5313   13.4995 C.2     1  UNL1        0.0785
     24 C          65.4556   90.7528   14.3916 C.2     1  UNL1        0.2463
     25 N          66.5191   91.7338   13.9960 N.2     1  UNL1       -0.0298
     26 C          66.3973   92.4934   12.7083 C.2     1  UNL1        0.3716
     27 N          67.2806   93.5176   12.0597 N.2     1  UNL1       -0.0392
     28 C          66.6413   93.9291   10.7668 C.2     1  UNL1        0.1714
     29 C          67.1850   94.9341    9.7949 C.3     1  UNL1        0.0824
     30 C          65.3627   93.1592   10.6163 C.2     1  UNL1        0.0457
     31 C          65.2120   92.2720   11.8162 C.2     1  UNL1        0.0753
     32 C          64.1484   91.2909   12.2118 C.3     1  UNL1        0.0794
@<TRIPOS>BOND
     1    15    16    1
     2    16    10    1
     3    10    11   ar
     4    11    12   ar
     5    12    13   ar
     6    13     1    1
     7     1     2   ar
     8     2     3   ar
     9     3     4   ar
    10     4     5   ar
    11     5     6   ar
    12     6     7   ar
    13     7    21    1
    14    21    23    1
    15    23    24    2
    16    24    25    1
    17    25    26    2
    18    26    27    1
    19    27    28    2
    20    28    29    1
    21    28    30    1
    22    30    31    2
    23    31    32    1
    24     7     8   ar
    25     8     9   ar
    26     9    18    1
    27    18    19    1
    28    18    20    1
    29    13    14   ar
    30    14    10   ar
    31     9     1   ar
    32     8     3   ar
    33    32    23    1
    34    31    26    1
    35    16    17    1
    36    21    22    1
@<TRIPOS>MOLECULE
*****
 32 36 0 0 0
SMALL
GASTEIGER

@<TRIPOS>ATOM
      1 C          62.0936   86.2495   10.6404 C.ar    1  UNL1        0.0719
      2 C          62.7792   85.2099   11.4765 C.ar    1  UNL1        0.1049
      3 N          63.3483   85.8895   12.6866 N.ar    1  UNL1       -0.2242
      4 N          64.1273   85.3678   13.8574 N.ar    1  UNL1       -0.1422
      5 C          64.5725   86.3059   14.9399 C.ar    1  UNL1        0.2211
      6 N          64.2387   87.7656   14.8516 N.ar    1  UNL1       -0.2060
      7 C          63.4596   88.2873   13.6808 C.ar    1  UNL1        0.1513
      8 C          63.0144   87.3492   12.5983 C.ar    1  UNL1        0.1106
      9 C          62.2390   87.5717   11.3336 C.ar    1  UNL1        0.0040
     10 C          60.8544   85.1847    7.1195 C.ar    1  UNL1        0.3087
     11 N          59.7436   86.0937    7.5551 N.ar    1  UNL1       -0.0923
     12 N          60.0726   86.6032    8.9270 N.ar    1  UNL1       -0.1057
     13 C          61.3867   86.0091    9.3394 C.ar    1  UNL1        0.2525
     14 O          61.8699   85.1324    8.2222 O.2     1  UNL1       -0.4048
     15 C          62.2649   84.2537    5.1463 C.3     1  UNL1        0.1124
     16 N          60.9355   84.4559    5.8110 N.pl3   1  UNL1       -0.2854
     17 H          60.1162   84.1104    5.3884 H       1  UNL1        0.1512
     18 C          61.7030   88.8857   10.8477 C.3     1  UNL1        0.0241
     19 C          60.3431   89.3474   11.2808 C.3     1  UNL1        0.0047
     20 C          62.5268   89.7380    9.9286 C.3     1  UNL1        0.0047
     21 N          63.1257   89.7470   13.5925 N.pl3   1  UNL1       -0.2967
     22 H          62.1871   90.0334   13.5144 H       1  UNL1        0.1535
     23 C          64.2220   90.7703   13.6231 C.2     1  UNL1        0.0785
     24 C          64.5169   91.5903   12.4022 C.2     1  UNL1        0.2463
     25 N          65.6132   92.6136   12.4328 N.2     1  UNL1       -0.0298
     26 C          66.4146   92.8169   13.6844 C.2     1  UNL1        0.3716
     27 N          67.5477   93.7439   14.0111 N.2     1  UNL1       -0.0392
     28 C          67.9532   93.4967   15.4340 C.2     1  UNL1        0.1714
     29 C          69.0489   94.2050   16.1743 C.3     1  UNL1        0.0824
     30 C          67.0706   92.4171   15.9866 C.2     1  UNL1        0.0457
     31 C          66.1198   91.9970   14.9053 C.2     1  UNL1        0.0753
     32 C          65.0234   90.9736   14.8747 C.3     1  UNL1        0.0794
@<TRIPOS>BOND
     1    15    16    1
     2    16    10    1
     3    10    11   ar
     4    11    12   ar
     5    12    13   ar
     6    13     1    1
     7     1     2   ar
     8     2     3   ar
     9     3     4   ar
    10     4     5   ar
    11     5     6   ar
    12     6     7   ar
    13     7    21    1
    14    21    23    1
    15    23    24    2
    16    24    25    1
    17    25    26    2
    18    26    27    1
    19    27    28    2
    20    28    29    1
    21    28    30    1
    22    30    31    2
    23    31    32    1
    24     7     8   ar
    25     8     9   ar
    26     9    18    1
    27    18    19    1
    28    18    20    1
    29    13    14   ar
    30    14    10   ar
    31     9     1   ar
    32     8     3   ar
    33    32    23    1
    34    31    26    1
    35    16    17    1
    36    21    22    1
@<TRIPOS>MOLECULE
*****
 32 36 0 0 0
SMALL
GASTEIGER

@<TRIPOS>ATOM
      1 C          62.8710   85.1714   11.4432 C.ar    1  UNL1        0.0719
      2 C          62.4260   86.0501   10.3120 C.ar    1  UNL1        0.1049
      3 N          62.4444   87.4706   10.7935 N.ar    1  UNL1       -0.2242
      4 N          62.1045   88.7647   10.1154 N.ar    1  UNL1       -0.1422
      5 C          62.2210   90.0580   10.8663 C.ar    1  UNL1        0.2211
      6 N          62.6774   90.0572   12.2952 N.ar    1  UNL1       -0.2060
      7 C          63.0172   88.7631   12.9732 C.ar    1  UNL1        0.1513
      8 C          62.9007   87.4698   12.2224 C.ar    1  UNL1        0.1106
      9 C          63.1644   86.0488   12.6239 C.ar    1  UNL1        0.0040
     10 C          62.8053   81.3268   11.9731 C.ar    1  UNL1        0.3087
     11 N          63.5915   81.4305   10.6999 N.ar    1  UNL1       -0.0923
     12 N          63.7118   82.8833   10.3465 N.ar    1  UNL1       -0.1057
     13 C          63.0000   83.6775   11.4012 C.ar    1  UNL1        0.2525
     14 O          62.4397   82.7155   12.4065 O.2     1  UNL1       -0.4048
     15 C          61.6548   80.1106   13.9599 C.3     1  UNL1        0.1124
     16 N          62.4475   80.0574   12.6875 N.pl3   1  UNL1       -0.2854
     17 H          62.7328   79.1892   12.3213 H       1  UNL1        0.1512
     18 C          63.6383   85.5864   13.9699 C.3     1  UNL1        0.0241
     19 C          62.6932   84.8792   14.8956 C.3     1  UNL1        0.0047
     20 C          65.0571   85.8312   14.3903 C.3     1  UNL1        0.0047
     21 N          63.4736   88.7623   14.4021 N.pl3   1  UNL1       -0.2967
     22 H          63.2835   87.9876   14.9791 H       1  UNL1        0.1535
     23 C          64.2196   89.9418   14.9519 C.2     1  UNL1        0.0785
     24 C          63.5623   90.8445   15.9534 C.2     1  UNL1        0.2463
     25 N          64.3083   92.0240   16.5032 N.2     1  UNL1       -0.0298
     26 C          65.7116   92.3008   16.0514 C.2     1  UNL1        0.3716
     27 N          66.6887   93.3794   16.4147 N.2     1  UNL1       -0.0392
     28 C          67.9498   93.1433   15.6377 C.2     1  UNL1        0.1714
     29 C          69.1908   93.9841   15.6942 C.3     1  UNL1        0.0824
     30 C          67.7522   91.9188   14.7942 C.2     1  UNL1        0.0457
     31 C          66.3689   91.3981   15.0499 C.2     1  UNL1        0.0753
     32 C          65.6229   90.2186   14.5001 C.3     1  UNL1        0.0794
@<TRIPOS>BOND
     1    15    16    1
     2    16    10    1
     3    10    11   ar
     4    11    12   ar
     5    12    13   ar
     6    13     1    1
     7     1     2   ar
     8     2     3   ar
     9     3     4   ar
    10     4     5   ar
    11     5     6   ar
    12     6     7   ar
    13     7    21    1
    14    21    23    1
    15    23    24    2
    16    24    25    1
    17    25    26    2
    18    26    27    1
    19    27    28    2
    20    28    29    1
    21    28    30    1
    22    30    31    2
    23    31    32    1
    24     7     8   ar
    25     8     9   ar
    26     9    18    1
    27    18    19    1
    28    18    20    1
    29    13    14   ar
    30    14    10   ar
    31     9     1   ar
    32     8     3   ar
    33    32    23    1
    34    31    26    1
    35    16    17    1
    36    21    22    1
@<TRIPOS>MOLECULE
*****
 32 36 0 0 0
SMALL
GASTEIGER

@<TRIPOS>ATOM
      1 C          63.9419   89.8215   13.4393 C.ar    1  UNL1        0.0719
      2 C          63.4303   89.9985   12.0404 C.ar    1  UNL1        0.1049
      3 N          62.9243   88.6705   11.5604 N.ar    1  UNL1       -0.2242
      4 N          62.3081   88.2410   10.2620 N.ar    1  UNL1       -0.1422
      5 C          61.8908   86.8136   10.0659 C.ar    1  UNL1        0.2211
      6 N          62.0898   85.8158   11.1681 N.ar    1  UNL1       -0.2060
      7 C          62.7059   86.2454   12.4665 C.ar    1  UNL1        0.1513
      8 C          63.1232   87.6728   12.6626 C.ar    1  UNL1        0.1106
      9 C          63.7521   88.3841   13.8238 C.ar    1  UNL1        0.0040
     10 C          66.0476   92.5851   15.1699 C.ar    1  UNL1        0.3087
     11 N          64.8660   92.5019   16.0902 N.ar    1  UNL1       -0.0923
     12 N          63.9335   91.4566   15.5539 N.ar    1  UNL1       -0.1057
     13 C          64.5386   90.8936   14.3022 C.ar    1  UNL1        0.2525
     14 O          65.8452   91.5911   14.0648 O.2     1  UNL1       -0.4048
     15 C          68.5347   92.9617   15.8200 C.3     1  UNL1        0.1124
     16 N          67.2248   93.5013   15.3269 N.pl3   1  UNL1       -0.2854
     17 H          67.1377   94.4568   15.1064 H       1  UNL1        0.1512
     18 C          64.1257   87.7664   15.1387 C.3     1  UNL1        0.0241
     19 C          65.2202   86.7427   15.2025 C.3     1  UNL1        0.0047
     20 C          63.4048   88.1724   16.3898 C.3     1  UNL1        0.0047
     21 N          62.9048   85.2476   13.5687 N.pl3   1  UNL1       -0.2967
     22 H          63.1173   85.5558   14.4792 H       1  UNL1        0.1535
     23 C          62.7799   83.7803   13.2836 C.2     1  UNL1        0.0785
     24 C          62.3350   82.8413   14.3654 C.2     1  UNL1        0.2463
     25 N          62.2101   81.3740   14.0803 N.2     1  UNL1       -0.0298
     26 C          62.5301   80.8456   12.7135 C.2     1  UNL1        0.3716
     27 N          62.4998   79.4596   12.1407 N.2     1  UNL1       -0.0392
     28 C          62.9260   79.5420   10.7049 C.2     1  UNL1        0.1714
     29 C          63.0387   78.3897    9.7511 C.3     1  UNL1        0.0824
     30 C          63.2198   80.9789   10.3903 C.2     1  UNL1        0.0457
     31 C          62.9751   81.7845   11.6317 C.2     1  UNL1        0.0753
     32 C          63.1000   83.2519   11.9167 C.3     1  UNL1        0.0794
@<TRIPOS>BOND
     1    15    16    1
     2    16    10    1
     3    10    11   ar
     4    11    12   ar
     5    12    13   ar
     6    13     1    1
     7     1     2   ar
     8     2     3   ar
     9     3     4   ar
    10     4     5   ar
    11     5     6   ar
    12     6     7   ar
    13     7    21    1
    14    21    23    1
    15    23    24    2
    16    24    25    1
    17    25    26    2
    18    26    27    1
    19    27    28    2
    20    28    29    1
    21    28    30    1
    22    30    31    2
    23    31    32    1
    24     7     8   ar
    25     8     9   ar
    26     9    18    1
    27    18    19    1
    28    18    20    1
    29    13    14   ar
    30    14    10   ar
    31     9     1   ar
    32     8     3   ar
    33    32    23    1
    34    31    26    1
    35    16    17    1
    36    21    22    1
@<TRIPOS>MOLECULE
*****
 32 36 0 0 0
SMALL
GASTEIGER

@<TRIPOS>ATOM
      1 C          62.8052   84.5694   12.2812 C.ar    1  UNL1        0.0719
      2 C          62.2097   85.0688   10.9983 C.ar    1  UNL1        0.1049
      3 N          62.3198   86.5647   10.9874 N.ar    1  UNL1       -0.2242
      4 N          61.9015   87.5945    9.9802 N.ar    1  UNL1       -0.1422
      5 C          62.1468   89.0496   10.2494 C.ar    1  UNL1        0.2211
      6 N          62.8103   89.4749   11.5257 N.ar    1  UNL1       -0.2060
      7 C          63.2286   88.4450   12.5328 C.ar    1  UNL1        0.1513
      8 C          62.9833   86.9899   12.2637 C.ar    1  UNL1        0.1106
      9 C          63.2832   85.7568   13.0633 C.ar    1  UNL1        0.0040
     10 C          62.8391   80.7087   12.6799 C.ar    1  UNL1        0.3087
     11 N          63.2782   81.1450   14.0462 N.ar    1  UNL1       -0.0923
     12 N          63.3189   82.6444   14.0632 N.ar    1  UNL1       -0.1057
     13 C          62.9050   83.1347   12.7074 C.ar    1  UNL1        0.2525
     14 O          62.6084   81.9384   11.8525 O.2     1  UNL1       -0.4048
     15 C          62.7506   78.9587   10.7616 C.3     1  UNL1        0.1124
     16 N          62.6617   79.2915   12.2215 N.pl3   1  UNL1       -0.2854
     17 H          62.4870   78.5797   12.8789 H       1  UNL1        0.1512
     18 C          63.9451   85.7179   14.4088 C.3     1  UNL1        0.0241
     19 C          63.1141   85.7870   15.6558 C.3     1  UNL1        0.0047
     20 C          65.4379   85.6099   14.5075 C.3     1  UNL1        0.0047
     21 N          63.8921   88.8702   13.8091 N.pl3   1  UNL1       -0.2967
     22 H          63.8231   88.3046   14.6120 H       1  UNL1        0.1535
     23 C          64.6607   90.1572   13.8622 C.2     1  UNL1        0.0785
     24 C          64.3175   91.2751   12.9227 C.2     1  UNL1        0.2463
     25 N          65.0861   92.5621   12.9758 N.2     1  UNL1       -0.0298
     26 C          66.1979   92.7313   13.9684 C.2     1  UNL1        0.3716
     27 N          67.1243   93.8763   14.2522 N.2     1  UNL1       -0.0392
     28 C          68.0401   93.4661   15.3671 C.2     1  UNL1        0.1714
     29 C          69.1258   94.3069   15.9709 C.3     1  UNL1        0.0824
     30 C          67.6797   92.0676   15.7724 C.2     1  UNL1        0.0457
     31 C          66.5411   91.6135   14.9079 C.2     1  UNL1        0.0753
     32 C          65.7725   90.3264   14.8548 C.3     1  UNL1        0.0794
@<TRIPOS>BOND
     1    15    16    1
     2    16    10    1
     3    10    11   ar
     4    11    12   ar
     5    12    13   ar
     6    13     1    1
     7     1     2   ar
     8     2     3   ar
     9     3     4   ar
    10     4     5   ar
    11     5     6   ar
    12     6     7   ar
    13     7    21    1
    14    21    23    1
    15    23    24    2
    16    24    25    1
    17    25    26    2
    18    26    27    1
    19    27    28    2
    20    28    29    1
    21    28    30    1
    22    30    31    2
    23    31    32    1
    24     7     8   ar
    25     8     9   ar
    26     9    18    1
    27    18    19    1
    28    18    20    1
    29    13    14   ar
    30    14    10   ar
    31     9     1   ar
    32     8     3   ar
    33    32    23    1
    34    31    26    1
    35    16    17    1
    36    21    22    1
@<TRIPOS>MOLECULE
*****
 32 36 0 0 0
SMALL
GASTEIGER

@<TRIPOS>ATOM
      1 C          62.3765   85.4867   11.0225 C.ar    1  UNL1        0.0719
      2 C          61.4678   85.8972    9.9018 C.ar    1  UNL1        0.1049
      3 N          61.1344   87.3484   10.0832 N.ar    1  UNL1       -0.2242
      4 N          60.2818   88.2897    9.2851 N.ar    1  UNL1       -0.1422
      5 C          60.1318   89.7174    9.7198 C.ar    1  UNL1        0.2211
      6 N          60.8344   90.2039   10.9526 N.ar    1  UNL1       -0.2060
      7 C          61.6870   89.2626   11.7507 C.ar    1  UNL1        0.1513
      8 C          61.8370   87.8348   11.3160 C.ar    1  UNL1        0.1106
      9 C          62.6046   86.6842   11.8965 C.ar    1  UNL1        0.0040
     10 C          63.2682   81.8376   11.9996 C.ar    1  UNL1        0.3087
     11 N          64.4239   82.1904   11.1108 N.ar    1  UNL1       -0.0923
     12 N          64.2305   83.6003   10.6366 N.ar    1  UNL1       -0.1057
     13 C          62.9553   84.1189   11.2323 C.ar    1  UNL1        0.2525
     14 O          62.3606   83.0295   12.0747 O.2     1  UNL1       -0.4048
     15 C          61.8613   80.3249   13.5751 C.3     1  UNL1        0.1124
     16 N          63.0572   80.5237   12.6918 N.pl3   1  UNL1       -0.2854
     17 H          63.7036   79.7919   12.5663 H       1  UNL1        0.1512
     18 C          63.4517   86.7242   13.1337 C.3     1  UNL1        0.0241
     19 C          63.5717   85.5056   14.0003 C.3     1  UNL1        0.0047
     20 C          64.1788   87.9826   13.5045 C.3     1  UNL1        0.0047
     21 N          62.3897   89.7490   12.9834 N.pl3   1  UNL1       -0.2967
     22 H          62.1381   89.3930   13.8662 H       1  UNL1        0.1535
     23 C          63.4754   90.7778   12.8712 C.2     1  UNL1        0.0785
     24 C          64.1671   91.2760   14.1055 C.2     1  UNL1        0.2463
     25 N          65.2529   92.3048   13.9933 N.2     1  UNL1       -0.0298
     26 C          65.6471   92.8354   12.6468 C.2     1  UNL1        0.3716
     27 N          66.6735   93.8456   12.2273 N.2     1  UNL1       -0.0392
     28 C          66.6162   93.9717   10.7337 C.2     1  UNL1        0.1714
     29 C          67.4707   94.8720    9.8915 C.3     1  UNL1        0.0824
     30 C          65.5544   93.0394   10.2302 C.2     1  UNL1        0.0457
     31 C          64.9555   92.3372   11.4125 C.2     1  UNL1        0.0753
     32 C          63.8697   91.3084   11.5247 C.3     1  UNL1        0.0794
@<TRIPOS>BOND
     1    15    16    1
     2    16    10    1
     3    10    11   ar
     4    11    12   ar
     5    12    13   ar
     6    13     1    1
     7     1     2   ar
     8     2     3   ar
     9     3     4   ar
    10     4     5   ar
    11     5     6   ar
    12     6     7   ar
    13     7    21    1
    14    21    23    1
    15    23    24    2
    16    24    25    1
    17    25    26    2
    18    26    27    1
    19    27    28    2
    20    28    29    1
    21    28    30    1
    22    30    31    2
    23    31    32    1
    24     7     8   ar
    25     8     9   ar
    26     9    18    1
    27    18    19    1
    28    18    20    1
    29    13    14   ar
    30    14    10   ar
    31     9     1   ar
    32     8     3   ar
    33    32    23    1
    34    31    26    1
    35    16    17    1
    36    21    22    1
@<TRIPOS>MOLECULE
*****
 32 36 0 0 0
SMALL
GASTEIGER

@<TRIPOS>ATOM
      1 C          62.7686   85.6776   12.8432 C.ar    1  UNL1        0.0719
      2 C          62.0807   85.9141   11.5314 C.ar    1  UNL1        0.1049
      3 N          62.2506   87.3607   11.1730 N.ar    1  UNL1       -0.2242
      4 N          61.7857   88.1641    9.9948 N.ar    1  UNL1       -0.1422
      5 C          62.1137   89.6251    9.9068 C.ar    1  UNL1        0.2211
      6 N          62.9067   90.2827   10.9971 N.ar    1  UNL1       -0.2060
      7 C          63.3715   89.4793   12.1754 C.ar    1  UNL1        0.1513
      8 C          63.0435   88.0183   12.2634 C.ar    1  UNL1        0.1106
      9 C          63.3636   86.9781   13.2956 C.ar    1  UNL1        0.0040
     10 C          63.1422   82.0101   14.0580 C.ar    1  UNL1        0.3087
     11 N          62.7962   82.7065   15.3407 N.ar    1  UNL1       -0.0923
     12 N          62.6141   84.1651   15.0418 N.ar    1  UNL1       -0.1057
     13 C          62.8476   84.3702   13.5743 C.ar    1  UNL1        0.2525
     14 O          63.1740   83.0384   12.9664 O.2     1  UNL1       -0.4048
     15 C          62.4733   79.6952   13.0865 C.3     1  UNL1        0.1124
     16 N          63.4096   80.5431   13.8955 N.pl3   1  UNL1       -0.2854
     17 H          64.1996   80.1368   14.3198 H       1  UNL1        0.1512
     18 C          64.1422   87.1996   14.5585 C.3     1  UNL1        0.0241
     19 C          63.7090   88.2563   15.5310 C.3     1  UNL1        0.0047
     20 C          65.3537   86.3644   14.8489 C.3     1  UNL1        0.0047
     21 N          64.1644   90.1369   13.2658 N.pl3   1  UNL1       -0.2967
     22 H          64.2367   89.7082   14.1490 H       1  UNL1        0.1535
     23 C          64.8473   91.4478   13.0104 C.2     1  UNL1        0.0785
     24 C          65.3952   92.2441   14.1574 C.2     1  UNL1        0.2463
     25 N          66.0781   93.5550   13.9020 N.2     1  UNL1       -0.0298
     26 C          66.2130   94.0697   12.4996 C.2     1  UNL1        0.3716
     27 N          66.8313   95.3181   11.9437 N.2     1  UNL1       -0.0392
     28 C          66.6655   95.2935   10.4531 C.2     1  UNL1        0.1714
     29 C          67.1377   96.3475    9.4959 C.3     1  UNL1        0.0824
     30 C          65.9447   94.0298   10.0877 C.2     1  UNL1        0.0457
     31 C          65.6651   93.2735   11.3525 C.2     1  UNL1        0.0753
     32 C          64.9822   91.9625   11.6079 C.3     1  UNL1        0.0794
@<TRIPOS>BOND
     1    15    16    1
     2    16    10    1
     3    10    11   ar
     4    11    12   ar
     5    12    13   ar
     6    13     1    1
     7     1     2   ar
     8     2     3   ar
     9     3     4   ar
    10     4     5   ar
    11     5     6   ar
    12     6     7   ar
    13     7    21    1
    14    21    23    1
    15    23    24    2
    16    24    25    1
    17    25    26    2
    18    26    27    1
    19    27    28    2
    20    28    29    1
    21    28    30    1
    22    30    31    2
    23    31    32    1
    24     7     8   ar
    25     8     9   ar
    26     9    18    1
    27    18    19    1
    28    18    20    1
    29    13    14   ar
    30    14    10   ar
    31     9     1   ar
    32     8     3   ar
    33    32    23    1
    34    31    26    1
    35    16    17    1
    36    21    22    1
@<TRIPOS>MOLECULE
*****
 32 36 0 0 0
SMALL
GASTEIGER

@<TRIPOS>ATOM
      1 C          64.6433   90.9461   13.4333 C.ar    1  UNL1        0.0719
      2 C          64.3176   91.5201   12.0863 C.ar    1  UNL1        0.1049
      3 N          63.4319   90.5451   11.3687 N.ar    1  UNL1       -0.2242
      4 N          62.7987   90.5766   10.0093 N.ar    1  UNL1       -0.1422
      5 C          61.9438   89.4316    9.5534 C.ar    1  UNL1        0.2211
      6 N          61.7221   88.2549   10.4570 N.ar    1  UNL1       -0.2060
      7 C          62.3553   88.2233   11.8163 C.ar    1  UNL1        0.1513
      8 C          63.2103   89.3684   12.2722 C.ar    1  UNL1        0.1106
      9 C          63.9589   89.6163   13.5482 C.ar    1  UNL1        0.0040
     10 C          67.4379   92.4006   15.7006 C.ar    1  UNL1        0.3087
     11 N          66.2115   92.7561   16.4878 N.ar    1  UNL1       -0.0923
     12 N          65.0154   92.2545   15.7343 N.ar    1  UNL1       -0.1057
     13 C          65.5025   91.5890   14.4814 C.ar    1  UNL1        0.2525
     14 O          66.9996   91.6792   14.4605 O.2     1  UNL1       -0.4048
     15 C          69.3346   94.1325   16.0915 C.3     1  UNL1        0.1124
     16 N          68.8538   92.7117   16.0857 N.pl3   1  UNL1       -0.2854
     17 H          69.4675   91.9833   16.3348 H       1  UNL1        0.1512
     18 C          64.0136   88.6959   14.7313 C.3     1  UNL1        0.0241
     19 C          63.3724   89.0997   16.0260 C.3     1  UNL1        0.0047
     20 C          64.7093   87.3717   14.6200 C.3     1  UNL1        0.0047
     21 N          62.1336   87.0467   12.7199 N.pl3   1  UNL1       -0.2967
     22 H          61.8089   87.1860   13.6388 H       1  UNL1        0.1535
     23 C          62.4067   85.6579   12.2233 C.2     1  UNL1        0.0785
     24 C          62.8970   85.4453   10.8217 C.2     1  UNL1        0.2463
     25 N          63.1701   84.0565   10.3252 N.2     1  UNL1       -0.0298
     26 C          62.9528   82.8802   11.2302 C.2     1  UNL1        0.3716
     27 N          63.1349   81.4060   11.0214 N.2     1  UNL1       -0.0392
     28 C          62.7571   80.7074   12.2939 C.2     1  UNL1        0.1714
     29 C          62.7893   79.2264   12.5297 C.3     1  UNL1        0.0824
     30 C          62.3415   81.7499   13.2892 C.2     1  UNL1        0.0457
     31 C          62.4624   83.0927   12.6317 C.2     1  UNL1        0.0753
     32 C          62.1894   84.4816   13.1283 C.3     1  UNL1        0.0794
@<TRIPOS>BOND
     1    15    16    1
     2    16    10    1
     3    10    11   ar
     4    11    12   ar
     5    12    13   ar
     6    13     1    1
     7     1     2   ar
     8     2     3   ar
     9     3     4   ar
    10     4     5   ar
    11     5     6   ar
    12     6     7   ar
    13     7    21    1
    14    21    23    1
    15    23    24    2
    16    24    25    1
    17    25    26    2
    18    26    27    1
    19    27    28    2
    20    28    29    1
    21    28    30    1
    22    30    31    2
    23    31    32    1
    24     7     8   ar
    25     8     9   ar
    26     9    18    1
    27    18    19    1
    28    18    20    1
    29    13    14   ar
    30    14    10   ar
    31     9     1   ar
    32     8     3   ar
    33    32    23    1
    34    31    26    1
    35    16    17    1
    36    21    22    1
