@<TRIPOS>MOLECULE
*****
 30 32 0 0 0
SMALL
GASTEIGER

@<TRIPOS>ATOM
      1 C          64.5416   90.3425   14.6072 C.ar    1  UNL1        0.0050
      2 C          63.8733   90.9574   15.8010 C.ar    1  UNL1       -0.0001
      3 C          63.2434   90.0805   16.8423 C.ar    1  UNL1       -0.0030
      4 C          63.2818   88.5888   16.6898 C.ar    1  UNL1       -0.0088
      5 C          63.9501   87.9739   15.4960 C.ar    1  UNL1        0.0438
      6 C          64.5800   88.8507   14.4547 C.ar    1  UNL1        0.0143
      7 N          63.9886   86.4822   15.3435 N.pl3   1  UNL1       -0.3071
      8 C          63.3587   85.6053   16.3847 C.3     1  UNL1        0.0911
      9 C          62.6903   86.2202   17.5786 C.3     1  UNL1        0.0261
     10 C          62.6519   87.7119   17.7312 C.3     1  UNL1        0.0294
     11 C          66.5490   91.7717   13.7839 C.ar    1  UNL1        0.0645
     12 N          67.1790   92.6485   12.7426 N.ar    1  UNL1       -0.2183
     13 C          66.4315   92.9730   11.4832 C.ar    1  UNL1        0.2145
     14 N          67.0614   93.8498   10.4419 N.pl3   1  UNL1       -0.3274
     15 N          65.0540   92.4206   11.2651 N.ar    1  UNL1       -0.1995
     16 C          64.4241   91.5438   12.3065 C.ar    1  UNL1        0.1293
     17 N          63.0466   90.9914   12.0885 N.pl3   1  UNL1       -0.3425
     18 C          65.1716   91.2193   13.5658 C.ar    1  UNL1        0.0449
     19 H          67.9655   94.2123   10.5850 H       1  UNL1        0.1452
     20 H          66.5708   94.0628    9.6153 H       1  UNL1        0.1452
     21 H          62.5560   91.2044   11.2619 H       1  UNL1        0.1437
     22 H          62.6332   90.4159   12.7719 H       1  UNL1        0.1437
     23 C          67.4907   92.5010   16.0929 C.3     1  UNL1        0.0067
     24 C          67.2965   91.4472   15.0433 C.3     1  UNL1        0.0460
     25 C          64.6569   85.8673   14.1496 C.3     1  UNL1        0.1024
     26 C          64.2951   84.4760   13.7214 C.3     1  UNL1        0.1309
     27 C          62.9712   84.2131   13.0668 C.2     1  UNL1        0.3189
     28 O          62.1773   85.3510   12.4968 O.2     1  UNL1       -0.2500
     29 O          62.4414   82.8124   12.9822 O.3     1  UNL1       -0.4443
     30 C          62.1391   82.0478   14.2368 C.3     1  UNL1        0.2556
@<TRIPOS>BOND
     1    23    24    1
     2    24    11    1
     3    11    12   ar
     4    12    13   ar
     5    13    14    1
     6    13    15   ar
     7    15    16   ar
     8    16    17    1
     9    16    18   ar
    10    18     1    1
    11     1     2   ar
    12     2     3   ar
    13     3     4   ar
    14     4     5   ar
    15     5     6   ar
    16     5     7    1
    17     7    25    1
    18    25    26    1
    19    26    27    1
    20    27    28    2
    21    27    29    1
    22    29    30    1
    23     7     8    1
    24     8     9    1
    25     9    10    1
    26    18    11   ar
    27     6     1   ar
    28    10     4    1
    29    14    19    1
    30    14    20    1
    31    17    21    1
    32    17    22    1
@<TRIPOS>MOLECULE
*****
 30 32 0 0 0
SMALL
GASTEIGER

@<TRIPOS>ATOM
      1 C          64.5661   90.2948   14.5580 C.ar    1  UNL1        0.0050
      2 C          63.8930   90.9144   15.7466 C.ar    1  UNL1       -0.0001
      3 C          63.2468   90.0422   16.7819 C.ar    1  UNL1       -0.0030
      4 C          63.2738   88.5503   16.6284 C.ar    1  UNL1       -0.0088
      5 C          63.9469   87.9307   15.4398 C.ar    1  UNL1        0.0438
      6 C          64.5930   88.8029   14.4046 C.ar    1  UNL1        0.0143
      7 N          63.9739   86.4388   15.2864 N.pl3   1  UNL1       -0.3071
      8 C          63.3278   85.5666   16.3216 C.3     1  UNL1        0.0911
      9 C          62.6546   86.1862   17.5103 C.3     1  UNL1        0.0261
     10 C          62.6276   87.6781   17.6637 C.3     1  UNL1        0.0294
     11 C          64.4985   91.4583   12.2360 C.ar    1  UNL1        0.0645
     12 N          65.1446   92.3304   11.2007 N.ar    1  UNL1       -0.2183
     13 C          66.5045   92.9114   11.4522 C.ar    1  UNL1        0.2145
     14 N          67.1507   93.7835   10.4169 N.pl3   1  UNL1       -0.3274
     15 N          67.2183   92.6201   12.7389 N.ar    1  UNL1       -0.1995
     16 C          66.5721   91.7479   13.7742 C.ar    1  UNL1        0.1293
     17 N          67.2859   91.4566   15.0610 N.pl3   1  UNL1       -0.3425
     18 C          65.2123   91.1670   13.5227 C.ar    1  UNL1        0.0449
     19 H          66.6822   93.9747    9.5724 H       1  UNL1        0.1452
     20 H          68.0432   94.1648   10.5819 H       1  UNL1        0.1452
     21 H          68.1784   91.8379   15.2260 H       1  UNL1        0.1437
     22 H          66.8618   90.8842   15.7404 H       1  UNL1        0.1437
     23 C          62.7243   90.5145   10.5893 C.3     1  UNL1        0.0067
     24 C          63.1386   90.8773   11.9845 C.3     1  UNL1        0.0460
     25 C          64.6470   85.8191   14.0978 C.3     1  UNL1        0.1024
     26 C          64.1758   84.4944   13.5751 C.3     1  UNL1        0.1309
     27 C          62.9746   84.4260   12.6792 C.2     1  UNL1        0.3189
     28 O          62.6137   83.1351   12.0059 O.2     1  UNL1       -0.2500
     29 O          62.1343   85.6484   12.4568 O.3     1  UNL1       -0.4443
     30 C          61.5763   85.9373   11.0947 C.3     1  UNL1        0.2556
@<TRIPOS>BOND
     1    23    24    1
     2    24    11    1
     3    11    12   ar
     4    12    13   ar
     5    13    14    1
     6    13    15   ar
     7    15    16   ar
     8    16    17    1
     9    16    18   ar
    10    18     1    1
    11     1     2   ar
    12     2     3   ar
    13     3     4   ar
    14     4     5   ar
    15     5     6   ar
    16     5     7    1
    17     7    25    1
    18    25    26    1
    19    26    27    1
    20    27    28    2
    21    27    29    1
    22    29    30    1
    23     7     8    1
    24     8     9    1
    25     9    10    1
    26    18    11   ar
    27     6     1   ar
    28    10     4    1
    29    14    19    1
    30    14    20    1
    31    17    21    1
    32    17    22    1
@<TRIPOS>MOLECULE
*****
 30 32 0 0 0
SMALL
GASTEIGER

@<TRIPOS>ATOM
      1 C          63.2542   90.1676   12.2748 C.ar    1  UNL1        0.0050
      2 C          62.5161   90.9073   11.1988 C.ar    1  UNL1       -0.0001
      3 C          61.7268   90.1487   10.1734 C.ar    1  UNL1       -0.0030
      4 C          61.6755   88.6504   10.2241 C.ar    1  UNL1       -0.0088
      5 C          62.4137   87.9108   11.3002 C.ar    1  UNL1        0.0438
      6 C          63.2030   88.6693   12.3255 C.ar    1  UNL1        0.0143
      7 N          62.3624   86.4125   11.3509 N.pl3   1  UNL1       -0.3071
      8 C          61.5731   85.6539   10.3255 C.3     1  UNL1        0.0911
      9 C          60.8349   86.3936    9.2493 C.3     1  UNL1        0.0261
     10 C          60.8862   87.8919    9.1986 C.3     1  UNL1        0.0294
     11 C          65.1067   91.8909   12.8654 C.ar    1  UNL1        0.0645
     12 N          65.8961   92.6495   13.8907 N.ar    1  UNL1       -0.2183
     13 C          65.6224   92.4433   15.3511 C.ar    1  UNL1        0.2145
     14 N          66.4118   93.2019   16.3765 N.pl3   1  UNL1       -0.3274
     15 N          64.5593   91.4786   15.7861 N.ar    1  UNL1       -0.1995
     16 C          63.7699   90.7200   14.7606 C.ar    1  UNL1        0.1293
     17 N          62.7068   89.7553   15.1955 N.pl3   1  UNL1       -0.3425
     18 C          64.0436   90.9262   13.3003 C.ar    1  UNL1        0.0449
     19 H          67.1095   93.8351   16.0910 H       1  UNL1        0.1452
     20 H          66.2321   93.0666   17.3350 H       1  UNL1        0.1452
     21 H          62.5272   89.6200   16.1540 H       1  UNL1        0.1437
     22 H          62.1887   89.2574   14.5225 H       1  UNL1        0.1437
     23 C          65.6073   93.4809   10.8725 C.3     1  UNL1        0.0067
     24 C          65.3804   92.0971   11.4050 C.3     1  UNL1        0.0460
     25 C          63.1006   85.6728   12.4269 C.3     1  UNL1        0.1024
     26 C          62.7810   84.2333   12.7021 C.3     1  UNL1        0.1309
     27 C          62.4728   83.7875   14.1008 C.2     1  UNL1        0.3189
     28 O          61.9694   84.7769   15.1095 O.2     1  UNL1       -0.2500
     29 O          62.6680   82.3523   14.4907 O.3     1  UNL1       -0.4443
     30 C          61.6192   81.3343   14.1537 C.3     1  UNL1        0.2556
@<TRIPOS>BOND
     1    23    24    1
     2    24    11    1
     3    11    12   ar
     4    12    13   ar
     5    13    14    1
     6    13    15   ar
     7    15    16   ar
     8    16    17    1
     9    16    18   ar
    10    18     1    1
    11     1     2   ar
    12     2     3   ar
    13     3     4   ar
    14     4     5   ar
    15     5     6   ar
    16     5     7    1
    17     7    25    1
    18    25    26    1
    19    26    27    1
    20    27    28    2
    21    27    29    1
    22    29    30    1
    23     7     8    1
    24     8     9    1
    25     9    10    1
    26    18    11   ar
    27     6     1   ar
    28    10     4    1
    29    14    19    1
    30    14    20    1
    31    17    21    1
    32    17    22    1
@<TRIPOS>MOLECULE
*****
 30 32 0 0 0
SMALL
GASTEIGER

@<TRIPOS>ATOM
      1 C          63.4207   90.1742   12.2898 C.ar    1  UNL1        0.0050
      2 C          62.6980   90.8724   11.1762 C.ar    1  UNL1       -0.0001
      3 C          61.8990   90.0777   10.1863 C.ar    1  UNL1       -0.0030
      4 C          61.8226   88.5847   10.3101 C.ar    1  UNL1       -0.0088
      5 C          62.5452   87.8865   11.4237 C.ar    1  UNL1        0.0438
      6 C          63.3442   88.6812   12.4136 C.ar    1  UNL1        0.0143
      7 N          62.4688   86.3936   11.5475 N.pl3   1  UNL1       -0.3071
      8 C          61.6698   85.5989   10.5576 C.3     1  UNL1        0.0911
      9 C          60.9471   86.2971    9.4438 C.3     1  UNL1        0.0261
     10 C          61.0235   87.7900    9.3201 C.3     1  UNL1        0.0294
     11 C          64.0308   90.7424   14.7505 C.ar    1  UNL1        0.0645
     12 N          64.8298   91.5370   15.7405 N.ar    1  UNL1       -0.2183
     13 C          65.8179   92.5582   15.2597 C.ar    1  UNL1        0.2145
     14 N          66.6169   93.3529   16.2497 N.pl3   1  UNL1       -0.3274
     15 N          66.0068   92.7847   13.7890 N.ar    1  UNL1       -0.1995
     16 C          65.2077   91.9900   12.7990 C.ar    1  UNL1        0.1293
     17 N          65.3967   92.2165   11.3283 N.pl3   1  UNL1       -0.3425
     18 C          64.2198   90.9689   13.2798 C.ar    1  UNL1        0.0449
     19 H          66.4929   93.2042   17.2150 H       1  UNL1        0.1452
     20 H          67.2654   94.0231   15.9342 H       1  UNL1        0.1452
     21 H          66.0451   92.8867   11.0128 H       1  UNL1        0.1437
     22 H          64.8722   91.6949   10.6786 H       1  UNL1        0.1437
     23 C          63.1180   89.2096   16.6393 C.3     1  UNL1        0.0067
     24 C          63.0428   89.7212   15.2313 C.3     1  UNL1        0.0460
     25 C          63.1914   85.6954   12.6611 C.3     1  UNL1        0.1024
     26 C          62.9517   84.2360   12.9119 C.3     1  UNL1        0.1309
     27 C          62.5066   83.7711   14.2669 C.2     1  UNL1        0.3189
     28 O          61.9130   84.7485   15.2376 O.2     1  UNL1       -0.2500
     29 O          62.6552   82.3288   14.6511 O.3     1  UNL1       -0.4443
     30 C          61.6106   81.3326   14.2434 C.3     1  UNL1        0.2556
@<TRIPOS>BOND
     1    23    24    1
     2    24    11    1
     3    11    12   ar
     4    12    13   ar
     5    13    14    1
     6    13    15   ar
     7    15    16   ar
     8    16    17    1
     9    16    18   ar
    10    18     1    1
    11     1     2   ar
    12     2     3   ar
    13     3     4   ar
    14     4     5   ar
    15     5     6   ar
    16     5     7    1
    17     7    25    1
    18    25    26    1
    19    26    27    1
    20    27    28    2
    21    27    29    1
    22    29    30    1
    23     7     8    1
    24     8     9    1
    25     9    10    1
    26    18    11   ar
    27     6     1   ar
    28    10     4    1
    29    14    19    1
    30    14    20    1
    31    17    21    1
    32    17    22    1
@<TRIPOS>MOLECULE
*****
 30 32 0 0 0
SMALL
GASTEIGER

@<TRIPOS>ATOM
      1 C          63.3713   85.6526   13.3869 C.ar    1  UNL1        0.0050
      2 C          64.1983   86.2762   14.4718 C.ar    1  UNL1       -0.0001
      3 C          64.4661   87.7520   14.4563 C.ar    1  UNL1       -0.0030
      4 C          63.9068   88.6041   13.3558 C.ar    1  UNL1       -0.0088
      5 C          63.0799   87.9805   12.2708 C.ar    1  UNL1        0.0438
      6 C          62.8121   86.5047   12.2864 C.ar    1  UNL1        0.0143
      7 N          62.5207   88.8327   11.1703 N.pl3   1  UNL1       -0.3071
      8 C          62.7884   90.3084   11.1547 C.3     1  UNL1        0.0911
      9 C          63.6155   90.9322   12.2397 C.3     1  UNL1        0.0261
     10 C          64.1747   90.0800   13.3402 C.3     1  UNL1        0.0294
     11 C          63.5664   83.3184   12.2627 C.ar    1  UNL1        0.0645
     12 N          63.2986   81.8426   12.2781 N.ar    1  UNL1       -0.2183
     13 C          62.5679   81.2250   13.4335 C.ar    1  UNL1        0.2145
     14 N          62.3001   79.7492   13.4490 N.pl3   1  UNL1       -0.3274
     15 N          62.1050   82.0833   14.5733 N.ar    1  UNL1       -0.1995
     16 C          62.3728   83.5592   14.5577 C.ar    1  UNL1        0.1293
     17 N          61.9099   84.4174   15.6975 N.pl3   1  UNL1       -0.3425
     18 C          63.1035   84.1767   13.4024 C.ar    1  UNL1        0.0449
     19 H          62.6039   79.1859   12.7009 H       1  UNL1        0.1452
     20 H          61.8206   79.3439   14.2072 H       1  UNL1        0.1452
     21 H          61.4304   84.0121   16.4558 H       1  UNL1        0.1437
     22 H          62.0857   85.3860   15.6873 H       1  UNL1        0.1437
     23 C          63.8564   83.6506    9.7022 C.3     1  UNL1        0.0067
     24 C          64.2971   83.9361   11.1073 C.3     1  UNL1        0.0460
     25 C          61.6937   88.2090   10.0854 C.3     1  UNL1        0.1024
     26 C          60.6335   89.0139    9.3938 C.3     1  UNL1        0.1309
     27 C          59.8346   88.4031    8.2808 C.2     1  UNL1        0.3189
     28 O          59.4856   89.2201    7.0722 O.2     1  UNL1       -0.2500
     29 O          59.3847   86.9754    8.3765 O.3     1  UNL1       -0.4443
     30 C          60.1071   85.9084    7.6086 C.3     1  UNL1        0.2556
@<TRIPOS>BOND
     1    23    24    1
     2    24    11    1
     3    11    12   ar
     4    12    13   ar
     5    13    14    1
     6    13    15   ar
     7    15    16   ar
     8    16    17    1
     9    16    18   ar
    10    18     1    1
    11     1     2   ar
    12     2     3   ar
    13     3     4   ar
    14     4     5   ar
    15     5     6   ar
    16     5     7    1
    17     7    25    1
    18    25    26    1
    19    26    27    1
    20    27    28    2
    21    27    29    1
    22    29    30    1
    23     7     8    1
    24     8     9    1
    25     9    10    1
    26    18    11   ar
    27     6     1   ar
    28    10     4    1
    29    14    19    1
    30    14    20    1
    31    17    21    1
    32    17    22    1
@<TRIPOS>MOLECULE
*****
 30 32 0 0 0
SMALL
GASTEIGER

@<TRIPOS>ATOM
      1 C          62.0754   86.3887   10.6710 C.ar    1  UNL1        0.0050
      2 C          62.6164   86.0202    9.3214 C.ar    1  UNL1       -0.0001
      3 C          63.3085   84.7041    9.1246 C.ar    1  UNL1       -0.0030
      4 C          63.4596   83.7564   10.2775 C.ar    1  UNL1       -0.0088
      5 C          62.9186   84.1249   11.6271 C.ar    1  UNL1        0.0438
      6 C          62.2265   85.4410   11.8239 C.ar    1  UNL1        0.0143
      7 N          63.0697   83.1772   12.7800 N.pl3   1  UNL1       -0.3071
      8 C          63.7618   81.8611   12.5833 C.3     1  UNL1        0.0911
      9 C          64.3029   81.4926   11.2336 C.3     1  UNL1        0.0261
     10 C          64.1518   82.4402   10.0807 C.3     1  UNL1        0.0294
     11 C          60.1032   87.9950   10.1418 C.ar    1  UNL1        0.0645
     12 N          59.4110   89.3111   10.3386 N.ar    1  UNL1       -0.2183
     13 C          59.9990   90.3372   11.2614 C.ar    1  UNL1        0.2145
     14 N          59.3069   91.6533   11.4581 N.pl3   1  UNL1       -0.3274
     15 N          61.2792   90.0471   11.9874 N.ar    1  UNL1       -0.1995
     16 C          61.9713   88.7309   11.7906 C.ar    1  UNL1        0.1293
     17 N          63.2514   88.4408   12.5166 N.pl3   1  UNL1       -0.3425
     18 C          61.3833   87.7049   10.8678 C.ar    1  UNL1        0.0449
     19 H          58.4667   91.8437   10.9816 H       1  UNL1        0.1452
     20 H          59.6928   92.3267   12.0638 H       1  UNL1        0.1452
     21 H          63.6374   89.1142   13.1222 H       1  UNL1        0.1437
     22 H          63.7057   87.5769   12.3874 H       1  UNL1        0.1437
     23 C          59.3094   87.2943    7.7692 C.3     1  UNL1        0.0067
     24 C          59.5152   86.9689    9.2190 C.3     1  UNL1        0.0460
     25 C          62.5287   83.5457   14.1296 C.3     1  UNL1        0.1024
     26 C          63.4690   83.9006   15.2432 C.3     1  UNL1        0.1309
     27 C          63.6459   85.3344   15.6471 C.2     1  UNL1        0.3189
     28 O          63.8850   86.3839   14.6024 O.2     1  UNL1       -0.2500
     29 O          63.5838   85.7186   17.0957 O.3     1  UNL1       -0.4443
     30 C          62.6113   86.7650   17.5531 C.3     1  UNL1        0.2556
@<TRIPOS>BOND
     1    23    24    1
     2    24    11    1
     3    11    12   ar
     4    12    13   ar
     5    13    14    1
     6    13    15   ar
     7    15    16   ar
     8    16    17    1
     9    16    18   ar
    10    18     1    1
    11     1     2   ar
    12     2     3   ar
    13     3     4   ar
    14     4     5   ar
    15     5     6   ar
    16     5     7    1
    17     7    25    1
    18    25    26    1
    19    26    27    1
    20    27    28    2
    21    27    29    1
    22    29    30    1
    23     7     8    1
    24     8     9    1
    25     9    10    1
    26    18    11   ar
    27     6     1   ar
    28    10     4    1
    29    14    19    1
    30    14    20    1
    31    17    21    1
    32    17    22    1
@<TRIPOS>MOLECULE
*****
 30 32 0 0 0
SMALL
GASTEIGER

@<TRIPOS>ATOM
      1 C          62.7859   85.6130   12.4854 C.ar    1  UNL1        0.0050
      2 C          63.6608   86.6171   13.1756 C.ar    1  UNL1       -0.0001
      3 C          63.5829   88.0662   12.7961 C.ar    1  UNL1       -0.0030
      4 C          62.6301   88.5112   11.7264 C.ar    1  UNL1       -0.0088
      5 C          61.7552   87.5071   11.0362 C.ar    1  UNL1        0.0438
      6 C          61.8332   86.0580   11.4157 C.ar    1  UNL1        0.0143
      7 N          60.8025   87.9521    9.9666 N.pl3   1  UNL1       -0.3071
      8 C          60.7246   89.4011    9.5871 C.3     1  UNL1        0.0911
      9 C          61.5994   90.4053   10.2773 C.3     1  UNL1        0.0261
     10 C          62.5522   89.9603   11.3469 C.3     1  UNL1        0.0294
     11 C          62.4509   83.7251   14.2386 C.ar    1  UNL1        0.0645
     12 N          62.5287   82.2760   14.6181 N.ar    1  UNL1       -0.2183
     13 C          63.0196   81.2656   13.6239 C.ar    1  UNL1        0.2145
     14 N          63.0974   79.8165   14.0034 N.pl3   1  UNL1       -0.3274
     15 N          63.4325   81.7044   12.2502 N.ar    1  UNL1       -0.1995
     16 C          63.3546   83.1536   11.8707 C.ar    1  UNL1        0.1293
     17 N          63.7675   83.5923   10.4971 N.pl3   1  UNL1       -0.3425
     18 C          62.8638   84.1638   12.8649 C.ar    1  UNL1        0.0449
     19 H          62.8264   79.5286   14.9050 H       1  UNL1        0.1452
     20 H          63.4195   79.1534   13.3509 H       1  UNL1        0.1452
     21 H          64.0897   82.9292    9.8446 H       1  UNL1        0.1437
     22 H          63.7164   84.5434   10.2480 H       1  UNL1        0.1437
     23 C          62.8017   85.0857   16.4239 C.3     1  UNL1        0.0067
     24 C          61.9601   84.7354   15.2327 C.3     1  UNL1        0.0460
     25 C          59.9276   86.9480    9.2764 C.3     1  UNL1        0.1024
     26 C          60.1586   86.6197    7.8311 C.3     1  UNL1        0.1309
     27 C          61.1677   85.5770    7.4509 C.2     1  UNL1        0.3189
     28 O          62.4815   85.5067    8.1713 O.2     1  UNL1       -0.2500
     29 O          60.8630   84.6045    6.3502 O.3     1  UNL1       -0.4443
     30 C          61.9479   84.1740    5.4081 C.3     1  UNL1        0.2556
@<TRIPOS>BOND
     1    23    24    1
     2    24    11    1
     3    11    12   ar
     4    12    13   ar
     5    13    14    1
     6    13    15   ar
     7    15    16   ar
     8    16    17    1
     9    16    18   ar
    10    18     1    1
    11     1     2   ar
    12     2     3   ar
    13     3     4   ar
    14     4     5   ar
    15     5     6   ar
    16     5     7    1
    17     7    25    1
    18    25    26    1
    19    26    27    1
    20    27    28    2
    21    27    29    1
    22    29    30    1
    23     7     8    1
    24     8     9    1
    25     9    10    1
    26    18    11   ar
    27     6     1   ar
    28    10     4    1
    29    14    19    1
    30    14    20    1
    31    17    21    1
    32    17    22    1
@<TRIPOS>MOLECULE
*****
 30 32 0 0 0
SMALL
GASTEIGER

@<TRIPOS>ATOM
      1 C          61.9877   86.0496   11.0493 C.ar    1  UNL1        0.0050
      2 C          62.0638   84.5527   11.1076 C.ar    1  UNL1       -0.0001
      3 C          62.8745   83.8842   12.1780 C.ar    1  UNL1       -0.0030
      4 C          63.6090   84.7125   13.1901 C.ar    1  UNL1       -0.0088
      5 C          63.5329   86.2094   13.1317 C.ar    1  UNL1        0.0438
      6 C          62.7223   86.8780   12.0613 C.ar    1  UNL1        0.0143
      7 N          64.2675   87.0378   14.1438 N.pl3   1  UNL1       -0.3071
      8 C          65.0781   86.3692   15.2142 C.3     1  UNL1        0.0911
      9 C          65.1543   84.8723   15.2726 C.3     1  UNL1        0.0261
     10 C          64.4197   84.0439   14.2605 C.3     1  UNL1        0.0294
     11 C          61.4228   86.3891    8.5362 C.ar    1  UNL1        0.0645
     12 N          60.6121   87.0577    7.4657 N.ar    1  UNL1       -0.2183
     13 C          59.5557   88.0555    7.8380 C.ar    1  UNL1        0.2145
     14 N          58.7451   88.7240    6.7675 N.pl3   1  UNL1       -0.3274
     15 N          59.3100   88.3846    9.2806 N.ar    1  UNL1       -0.1995
     16 C          60.1207   87.7160   10.3511 C.ar    1  UNL1        0.1293
     17 N          59.8749   88.0451   11.7937 N.pl3   1  UNL1       -0.3425
     18 C          61.1770   86.7183    9.9788 C.ar    1  UNL1        0.0449
     19 H          58.9064   88.5080    5.8207 H       1  UNL1        0.1452
     20 H          58.0517   89.3789    7.0118 H       1  UNL1        0.1452
     21 H          59.1816   88.7000   12.0380 H       1  UNL1        0.1437
     22 H          60.4070   87.6063   12.4963 H       1  UNL1        0.1437
     23 C          62.4410   84.7244    6.8209 C.3     1  UNL1        0.0067
     24 C          62.4792   85.3913    8.1640 C.3     1  UNL1        0.0460
     25 C          64.1914   88.5347   14.0855 C.3     1  UNL1        0.1024
     26 C          63.8137   89.3148   15.3097 C.3     1  UNL1        0.1309
     27 C          63.8517   90.8141   15.2850 C.2     1  UNL1        0.3189
     28 O          63.5400   91.5929   16.5285 O.2     1  UNL1       -0.2500
     29 O          64.2015   91.5347   14.0168 O.3     1  UNL1       -0.4443
     30 C          65.6298   91.8868   13.7238 C.3     1  UNL1        0.2556
@<TRIPOS>BOND
     1    23    24    1
     2    24    11    1
     3    11    12   ar
     4    12    13   ar
     5    13    14    1
     6    13    15   ar
     7    15    16   ar
     8    16    17    1
     9    16    18   ar
    10    18     1    1
    11     1     2   ar
    12     2     3   ar
    13     3     4   ar
    14     4     5   ar
    15     5     6   ar
    16     5     7    1
    17     7    25    1
    18    25    26    1
    19    26    27    1
    20    27    28    2
    21    27    29    1
    22    29    30    1
    23     7     8    1
    24     8     9    1
    25     9    10    1
    26    18    11   ar
    27     6     1   ar
    28    10     4    1
    29    14    19    1
    30    14    20    1
    31    17    21    1
    32    17    22    1
@<TRIPOS>MOLECULE
*****
 30 32 0 0 0
SMALL
GASTEIGER

@<TRIPOS>ATOM
      1 C          62.4946   89.8688   11.1154 C.ar    1  UNL1        0.0050
      2 C          61.1322   90.4963   11.1088 C.ar    1  UNL1       -0.0001
      3 C          60.0106   89.8458   10.3546 C.ar    1  UNL1       -0.0030
      4 C          60.2514   88.5678    9.6071 C.ar    1  UNL1       -0.0088
      5 C          61.6137   87.9403    9.6138 C.ar    1  UNL1        0.0438
      6 C          62.7354   88.5908   10.3679 C.ar    1  UNL1        0.0143
      7 N          61.8545   86.6623    8.8663 N.pl3   1  UNL1       -0.3071
      8 C          60.7329   86.0118    8.1121 C.3     1  UNL1        0.0911
      9 C          59.3704   86.6393    8.1054 C.3     1  UNL1        0.0261
     10 C          59.1297   87.9173    8.8529 C.3     1  UNL1        0.0294
     11 C          64.0675   89.9494   13.1817 C.ar    1  UNL1        0.0645
     12 N          65.1891   90.5998   13.9359 N.ar    1  UNL1       -0.2183
     13 C          65.8596   91.8201   13.3780 C.ar    1  UNL1        0.2145
     14 N          66.9813   92.4705   14.1322 N.pl3   1  UNL1       -0.3274
     15 N          65.4085   92.3900   12.0659 N.ar    1  UNL1       -0.1995
     16 C          64.2867   91.7395   11.3117 C.ar    1  UNL1        0.1293
     17 N          63.8356   92.3094    9.9995 N.pl3   1  UNL1       -0.3425
     18 C          63.6163   90.5192   11.8696 C.ar    1  UNL1        0.0449
     19 H          67.2774   92.0965   14.9934 H       1  UNL1        0.1452
     20 H          67.4213   93.2715   13.7660 H       1  UNL1        0.1452
     21 H          64.2756   93.1103    9.6333 H       1  UNL1        0.1437
     22 H          63.0994   91.8825    9.5045 H       1  UNL1        0.1437
     23 C          64.1961   87.7203   14.5103 C.3     1  UNL1        0.0067
     24 C          63.3969   88.7290   13.7397 C.3     1  UNL1        0.0460
     25 C          63.2169   86.0348    8.8729 C.3     1  UNL1        0.1024
     26 C          63.3548   84.5413    8.8520 C.3     1  UNL1        0.1309
     27 C          63.5855   83.7914   10.1306 C.2     1  UNL1        0.3189
     28 O          64.6840   82.7736   10.2154 O.2     1  UNL1       -0.2500
     29 O          62.7176   84.0595   11.3243 O.3     1  UNL1       -0.4443
     30 C          63.0350   83.4167   12.6418 C.3     1  UNL1        0.2556
@<TRIPOS>BOND
     1    23    24    1
     2    24    11    1
     3    11    12   ar
     4    12    13   ar
     5    13    14    1
     6    13    15   ar
     7    15    16   ar
     8    16    17    1
     9    16    18   ar
    10    18     1    1
    11     1     2   ar
    12     2     3   ar
    13     3     4   ar
    14     4     5   ar
    15     5     6   ar
    16     5     7    1
    17     7    25    1
    18    25    26    1
    19    26    27    1
    20    27    28    2
    21    27    29    1
    22    29    30    1
    23     7     8    1
    24     8     9    1
    25     9    10    1
    26    18    11   ar
    27     6     1   ar
    28    10     4    1
    29    14    19    1
    30    14    20    1
    31    17    21    1
    32    17    22    1
