@<TRIPOS>MOLECULE
*****
 28 30 0 0 0
SMALL
GASTEIGER

@<TRIPOS>ATOM
      1 C          63.5753   90.8464   11.4076 C.ar    1  UNL1        0.0828
      2 C          62.8475   90.9479   10.0999 C.ar    1  UNL1        0.1208
      3 N          61.9676   89.7408    9.9642 N.ar    1  UNL1       -0.1923
      4 C          62.1515   88.8932   11.1880 C.ar    1  UNL1        0.3055
      5 N          63.1452   89.5765   12.0801 N.ar    1  UNL1       -0.2795
      6 C          63.6246   89.0775   13.4109 C.3     1  UNL1        0.1351
      7 C          65.3112   92.7381   11.0097 C.2     1  UNL1       -0.0054
      8 C          64.5603   91.8403   11.9479 C.2     1  UNL1        0.0160
      9 C          66.2962   93.7320   11.5500 C.3     1  UNL1        0.0939
     10 C          66.4548   93.9012   13.0320 C.3     1  UNL1        0.0262
     11 C          67.3858   96.6433    9.0828 C.3     1  UNL1        0.0946
     12 C          66.5595   95.8185   10.0245 C.2     1  UNL1        0.2232
     13 O          65.1699   96.2555   10.3824 O.2     1  UNL1       -0.2751
     14 N          67.1226   94.5568   10.6083 N.am    1  UNL1       -0.3022
     15 H          68.0347   94.2699   10.3733 H       1  UNL1        0.1497
     16 O          61.4628   87.5909   11.4702 O.3     1  UNL1       -0.4226
     17 C          62.2360   86.3066   11.4175 C.ar    1  UNL1        0.1593
     18 C          62.8120   85.7258   12.6749 C.ar    1  UNL1        0.0416
     19 C          63.5852   84.4415   12.6221 C.ar    1  UNL1        0.0401
     20 C          63.7825   83.7381   11.3120 C.ar    1  UNL1        0.1396
     21 C          63.2066   84.3190   10.0547 C.ar    1  UNL1        0.0514
     22 C          62.4333   85.6033   10.1075 C.ar    1  UNL1        0.0952
     23 CL         61.8574   86.1841    8.8501 Cl      1  UNL1       -0.0790
     24 O          64.5558   82.4539   11.2593 O.3     1  UNL1       -0.4754
     25 C          64.5208   81.5090   12.4238 C.3     1  UNL1        0.2053
     26 C          63.2047   81.0425   12.9718 C.3     1  UNL1        0.0438
     27 C          61.8930   81.3442   13.6339 C.3     1  UNL1        0.0038
     28 C          62.2370   79.9331   13.2590 C.3     1  UNL1        0.0038
@<TRIPOS>BOND
     1    11    12    1
     2    12    13    2
     3    12    14   am
     4    14     9    1
     5     9    10    1
     6     9     7    1
     7     7     8    2
     8     8     1    1
     9     1     2   ar
    10     2     3   ar
    11     3     4   ar
    12     4    16    1
    13    16    17    1
    14    17    18   ar
    15    18    19   ar
    16    19    20   ar
    17    20    24    1
    18    24    25    1
    19    25    26    1
    20    26    27    1
    21    27    28    1
    22    20    21   ar
    23    21    22   ar
    24    22    23    1
    25     4     5   ar
    26     5     6    1
    27     5     1   ar
    28    22    17   ar
    29    28    26    1
    30    14    15    1
@<TRIPOS>MOLECULE
*****
 28 30 0 0 0
SMALL
GASTEIGER

@<TRIPOS>ATOM
      1 C          63.5492   90.8235   11.4031 C.ar    1  UNL1        0.0828
      2 C          62.8151   90.8989   10.0971 C.ar    1  UNL1        0.1208
      3 N          61.9458   89.6818    9.9831 N.ar    1  UNL1       -0.1923
      4 C          62.1427   88.8542   11.2185 C.ar    1  UNL1        0.3055
      5 N          63.1336   89.5598   12.0961 N.ar    1  UNL1       -0.2795
      6 C          63.6231   89.0850   13.4322 C.3     1  UNL1        0.1351
      7 C          65.2489   92.7405   10.9715 C.2     1  UNL1       -0.0054
      8 C          64.5272   91.8343   11.9244 C.2     1  UNL1        0.0160
      9 C          66.2269   93.7513   11.4928 C.3     1  UNL1        0.0939
     10 C          66.9930   94.6163   10.5363 C.3     1  UNL1        0.0262
     11 C          67.6023   93.1301   15.1632 C.3     1  UNL1        0.0946
     12 C          67.3904   92.9843   13.6855 C.2     1  UNL1        0.2232
     13 O          68.1303   91.9257   12.9226 O.2     1  UNL1       -0.2751
     14 N          66.4387   93.8971   12.9706 N.am    1  UNL1       -0.3022
     15 H          65.9531   94.5919   13.4713 H       1  UNL1        0.1497
     16 O          61.4672   87.5499   11.5229 O.3     1  UNL1       -0.4226
     17 C          62.2505   86.2714   11.4789 C.ar    1  UNL1        0.1593
     18 C          62.8585   85.7208   12.7348 C.ar    1  UNL1        0.0416
     19 C          63.6417   84.4423   12.6909 C.ar    1  UNL1        0.0401
     20 C          63.8170   83.7144   11.3910 C.ar    1  UNL1        0.1396
     21 C          63.2090   84.2651   10.1352 C.ar    1  UNL1        0.0514
     22 C          62.4257   85.5436   10.1792 C.ar    1  UNL1        0.0952
     23 CL         61.8177   86.0942    8.9233 Cl      1  UNL1       -0.0790
     24 O          64.6002   82.4359   11.3471 O.3     1  UNL1       -0.4754
     25 C          64.5641   81.4937   12.5137 C.3     1  UNL1        0.2053
     26 C          63.2473   81.0400   13.0707 C.3     1  UNL1        0.0438
     27 C          62.2098   79.9709   13.2454 C.3     1  UNL1        0.0038
     28 C          62.0041   81.3233   13.8608 C.3     1  UNL1        0.0038
@<TRIPOS>BOND
     1    11    12    1
     2    12    13    2
     3    12    14   am
     4    14     9    1
     5     9    10    1
     6     9     7    1
     7     7     8    2
     8     8     1    1
     9     1     2   ar
    10     2     3   ar
    11     3     4   ar
    12     4    16    1
    13    16    17    1
    14    17    18   ar
    15    18    19   ar
    16    19    20   ar
    17    20    24    1
    18    24    25    1
    19    25    26    1
    20    26    27    1
    21    27    28    1
    22    20    21   ar
    23    21    22   ar
    24    22    23    1
    25     4     5   ar
    26     5     6    1
    27     5     1   ar
    28    22    17   ar
    29    28    26    1
    30    14    15    1
@<TRIPOS>MOLECULE
*****
 28 30 0 0 0
SMALL
GASTEIGER

@<TRIPOS>ATOM
      1 C          63.5262   86.8923   13.1959 C.ar    1  UNL1        0.0828
      2 C          64.3306   87.0046   14.4570 C.ar    1  UNL1        0.1208
      3 N          64.5112   88.4618   14.7634 N.ar    1  UNL1       -0.1923
      4 C          63.8184   89.2501   13.6917 C.ar    1  UNL1        0.3055
      5 N          63.2096   88.2801   12.7230 N.ar    1  UNL1       -0.2795
      6 C          62.4225   88.6355   11.4966 C.3     1  UNL1        0.1351
      7 C          63.9734   84.3941   12.6399 C.2     1  UNL1       -0.0054
      8 C          63.1112   85.6162   12.5256 C.2     1  UNL1        0.0160
      9 C          63.5584   83.1180   11.9696 C.3     1  UNL1        0.0939
     10 C          64.4057   82.5342   10.8781 C.3     1  UNL1        0.0262
     11 C          61.0308   80.8525   14.0257 C.3     1  UNL1        0.0946
     12 C          62.2930   81.5447   13.6046 C.2     1  UNL1        0.2232
     13 O          63.5523   81.3558   14.3974 O.2     1  UNL1       -0.2751
     14 N          62.2960   82.4258   12.3907 N.am    1  UNL1       -0.3022
     15 H          61.4695   82.5497   11.8703 H       1  UNL1        0.1497
     16 O          63.7470   90.7458   13.6041 O.3     1  UNL1       -0.4226
     17 C          64.7429   91.4968   12.7709 C.ar    1  UNL1        0.1593
     18 C          64.4103   91.8653   11.3554 C.ar    1  UNL1        0.0416
     19 C          65.4062   92.6163   10.5222 C.ar    1  UNL1        0.0401
     20 C          66.7347   92.9987   11.1045 C.ar    1  UNL1        0.1396
     21 C          67.0672   92.6301   12.5199 C.ar    1  UNL1        0.0514
     22 C          66.0713   91.8792   13.3532 C.ar    1  UNL1        0.0952
     23 CL         66.4038   91.5106   14.7687 Cl      1  UNL1       -0.0790
     24 O          67.7306   93.7496   10.2713 O.3     1  UNL1       -0.4754
     25 C          67.3495   95.0584    9.6451 C.3     1  UNL1        0.2053
     26 C          66.4108   95.9859   10.3584 C.3     1  UNL1        0.0438
     27 C          65.1473   96.7940   10.3765 C.3     1  UNL1        0.0038
     28 C          66.0486   96.7842   11.5755 C.3     1  UNL1        0.0038
@<TRIPOS>BOND
     1    11    12    1
     2    12    13    2
     3    12    14   am
     4    14     9    1
     5     9    10    1
     6     9     7    1
     7     7     8    2
     8     8     1    1
     9     1     2   ar
    10     2     3   ar
    11     3     4   ar
    12     4    16    1
    13    16    17    1
    14    17    18   ar
    15    18    19   ar
    16    19    20   ar
    17    20    24    1
    18    24    25    1
    19    25    26    1
    20    26    27    1
    21    27    28    1
    22    20    21   ar
    23    21    22   ar
    24    22    23    1
    25     4     5   ar
    26     5     6    1
    27     5     1   ar
    28    22    17   ar
    29    28    26    1
    30    14    15    1
@<TRIPOS>MOLECULE
*****
 28 30 0 0 0
SMALL
GASTEIGER

@<TRIPOS>ATOM
      1 C          64.5429   91.5117   12.9868 C.ar    1  UNL1        0.0828
      2 C          63.3143   90.8798   12.4024 C.ar    1  UNL1        0.1208
      3 N          62.8060   89.8628   13.3808 N.ar    1  UNL1       -0.1923
      4 C          63.7204   89.8661   14.5699 C.ar    1  UNL1        0.3055
      5 N          64.7938   90.8852   14.3264 N.ar    1  UNL1       -0.2795
      6 C          65.9203   91.2191   15.2588 C.3     1  UNL1        0.1351
      7 C          65.2560   92.8413   10.8717 C.2     1  UNL1       -0.0054
      8 C          65.3744   92.5821   12.3444 C.2     1  UNL1        0.0160
      9 C          66.0875   93.9117   10.2293 C.3     1  UNL1        0.0939
     10 C          65.9078   95.3450   10.6336 C.3     1  UNL1        0.0262
     11 C          69.2683   92.3001    8.4873 C.3     1  UNL1        0.0946
     12 C          68.2571   92.6630    9.5340 C.2     1  UNL1        0.2232
     13 O          68.4041   92.1399   10.9321 O.2     1  UNL1       -0.2751
     14 N          67.0988   93.5489    9.1826 N.am    1  UNL1       -0.3022
     15 H          67.0023   93.8922    8.2649 H       1  UNL1        0.1497
     16 O          63.5850   89.0021   15.7885 O.3     1  UNL1       -0.4226
     17 C          63.6884   87.5107   15.6657 C.ar    1  UNL1        0.1593
     18 C          64.2955   86.8995   14.4377 C.ar    1  UNL1        0.0416
     19 C          64.3989   85.4082   14.3149 C.ar    1  UNL1        0.0401
     20 C          63.8953   84.5279   15.4202 C.ar    1  UNL1        0.1396
     21 C          63.2882   85.1391   16.6481 C.ar    1  UNL1        0.0514
     22 C          63.1848   86.6304   16.7709 C.ar    1  UNL1        0.0952
     23 CL         62.5778   87.2416   17.9990 Cl      1  UNL1       -0.0790
     24 O          63.9987   83.0365   15.2974 O.3     1  UNL1       -0.4754
     25 C          63.7906   82.3774   13.9661 C.3     1  UNL1        0.2053
     26 C          62.6808   81.3845   13.7861 C.3     1  UNL1        0.0438
     27 C          61.2507   80.9828   13.9944 C.3     1  UNL1        0.0038
     28 C          62.1887   80.0664   13.2660 C.3     1  UNL1        0.0038
@<TRIPOS>BOND
     1    11    12    1
     2    12    13    2
     3    12    14   am
     4    14     9    1
     5     9    10    1
     6     9     7    1
     7     7     8    2
     8     8     1    1
     9     1     2   ar
    10     2     3   ar
    11     3     4   ar
    12     4    16    1
    13    16    17    1
    14    17    18   ar
    15    18    19   ar
    16    19    20   ar
    17    20    24    1
    18    24    25    1
    19    25    26    1
    20    26    27    1
    21    27    28    1
    22    20    21   ar
    23    21    22   ar
    24    22    23    1
    25     4     5   ar
    26     5     6    1
    27     5     1   ar
    28    22    17   ar
    29    28    26    1
    30    14    15    1
@<TRIPOS>MOLECULE
*****
 28 30 0 0 0
SMALL
GASTEIGER

@<TRIPOS>ATOM
      1 C          61.9740   86.6970   10.1191 C.ar    1  UNL1        0.0828
      2 C          61.1132   87.3691    9.0908 C.ar    1  UNL1        0.1208
      3 N          60.9271   88.7988    9.5048 N.ar    1  UNL1       -0.1923
      4 C          61.6729   89.0103   10.7890 C.ar    1  UNL1        0.3055
      5 N          62.3199   87.7113   11.1686 N.ar    1  UNL1       -0.2795
      6 C          63.1645   87.4692   12.3843 C.3     1  UNL1        0.1351
      7 C          62.7268   84.5582   11.3875 C.2     1  UNL1       -0.0054
      8 C          62.4120   85.2625   10.1011 C.2     1  UNL1        0.0160
      9 C          63.1648   83.1237   11.3695 C.3     1  UNL1        0.0939
     10 C          64.4640   82.7442   10.7228 C.3     1  UNL1        0.0262
     11 C          61.4026   80.8692   14.1193 C.3     1  UNL1        0.0946
     12 C          62.2637   81.9242   13.4906 C.2     1  UNL1        0.2232
     13 O          63.0850   82.8349   14.3544 O.2     1  UNL1       -0.2751
     14 N          62.3036   82.0686   11.9981 N.am    1  UNL1       -0.3022
     15 H          61.7645   81.4710   11.4311 H       1  UNL1        0.1497
     16 O          61.7569   90.2952   11.5583 O.3     1  UNL1       -0.4226
     17 C          63.0903   90.9372   11.8027 C.ar    1  UNL1        0.1593
     18 C          63.8100   91.6224   10.6791 C.ar    1  UNL1        0.0416
     19 C          65.1435   92.2645   10.9235 C.ar    1  UNL1        0.0401
     20 C          65.7572   92.2213   12.2916 C.ar    1  UNL1        0.1396
     21 C          65.0375   91.5361   13.4151 C.ar    1  UNL1        0.0514
     22 C          63.7040   90.8941   13.1707 C.ar    1  UNL1        0.0952
     23 CL         62.9843   90.2089   14.2944 Cl      1  UNL1       -0.0790
     24 O          67.0906   92.8633   12.5360 O.3     1  UNL1       -0.4754
     25 C          68.1020   92.1823   13.4097 C.3     1  UNL1        0.2053
     26 C          68.1161   92.4458   14.8863 C.3     1  UNL1        0.0438
     27 C          67.3832   92.7586   16.1571 C.3     1  UNL1        0.0038
     28 C          68.8735   92.5893   16.1730 C.3     1  UNL1        0.0038
@<TRIPOS>BOND
     1    11    12    1
     2    12    13    2
     3    12    14   am
     4    14     9    1
     5     9    10    1
     6     9     7    1
     7     7     8    2
     8     8     1    1
     9     1     2   ar
    10     2     3   ar
    11     3     4   ar
    12     4    16    1
    13    16    17    1
    14    17    18   ar
    15    18    19   ar
    16    19    20   ar
    17    20    24    1
    18    24    25    1
    19    25    26    1
    20    26    27    1
    21    27    28    1
    22    20    21   ar
    23    21    22   ar
    24    22    23    1
    25     4     5   ar
    26     5     6    1
    27     5     1   ar
    28    22    17   ar
    29    28    26    1
    30    14    15    1
@<TRIPOS>MOLECULE
*****
 28 30 0 0 0
SMALL
GASTEIGER

@<TRIPOS>ATOM
      1 C          63.2066   86.7609   12.6138 C.ar    1  UNL1        0.0828
      2 C          62.5536   87.6204   11.5721 C.ar    1  UNL1        0.1208
      3 N          62.7658   89.0550   11.9554 N.ar    1  UNL1       -0.1923
      4 C          63.5498   89.0822   13.2338 C.ar    1  UNL1        0.3055
      5 N          63.8222   87.6644   13.6408 N.ar    1  UNL1       -0.2795
      6 C          64.5777   87.2268   14.8605 C.3     1  UNL1        0.1351
      7 C          63.1571   84.4987   11.3371 C.2     1  UNL1       -0.0054
      8 C          63.2382   85.2613   12.6263 C.2     1  UNL1        0.0160
      9 C          63.1887   82.9991   11.3496 C.3     1  UNL1        0.0939
     10 C          64.2806   82.2659   10.6283 C.3     1  UNL1        0.0262
     11 C          61.3309   80.9654   14.2065 C.3     1  UNL1        0.0946
     12 C          62.3911   81.7318   13.4727 C.2     1  UNL1        0.2232
     13 O          63.7138   81.9975   14.1282 O.2     1  UNL1       -0.2751
     14 N          62.1285   82.2326   12.0834 N.am    1  UNL1       -0.3022
     15 H          61.2603   82.0583   11.6531 H       1  UNL1        0.1497
     16 O          63.9851   90.3114   13.9752 O.3     1  UNL1       -0.4226
     17 C          64.6956   91.4139   13.2475 C.ar    1  UNL1        0.1593
     18 C          64.3429   91.7209   11.8222 C.ar    1  UNL1        0.0416
     19 C          65.0534   92.8234   11.0945 C.ar    1  UNL1        0.0401
     20 C          66.1166   93.6191   11.7921 C.ar    1  UNL1        0.1396
     21 C          66.4692   93.3121   13.2174 C.ar    1  UNL1        0.0514
     22 C          65.7587   92.2096   13.9451 C.ar    1  UNL1        0.0952
     23 CL         66.1114   91.9027   15.3704 Cl      1  UNL1       -0.0790
     24 O          66.8271   94.7216   11.0645 O.3     1  UNL1       -0.4754
     25 C          67.3694   94.4830    9.6864 C.3     1  UNL1        0.2053
     26 C          68.0537   93.1878    9.3636 C.3     1  UNL1        0.0438
     27 C          68.1842   91.7054    9.5519 C.3     1  UNL1        0.0038
     28 C          69.1083   92.4268    8.6162 C.3     1  UNL1        0.0038
@<TRIPOS>BOND
     1    11    12    1
     2    12    13    2
     3    12    14   am
     4    14     9    1
     5     9    10    1
     6     9     7    1
     7     7     8    2
     8     8     1    1
     9     1     2   ar
    10     2     3   ar
    11     3     4   ar
    12     4    16    1
    13    16    17    1
    14    17    18   ar
    15    18    19   ar
    16    19    20   ar
    17    20    24    1
    18    24    25    1
    19    25    26    1
    20    26    27    1
    21    27    28    1
    22    20    21   ar
    23    21    22   ar
    24    22    23    1
    25     4     5   ar
    26     5     6    1
    27     5     1   ar
    28    22    17   ar
    29    28    26    1
    30    14    15    1
@<TRIPOS>MOLECULE
*****
 28 30 0 0 0
SMALL
GASTEIGER

@<TRIPOS>ATOM
      1 C          62.1228   86.5104   10.4809 C.ar    1  UNL1        0.0828
      2 C          61.2324   87.1283    9.4437 C.ar    1  UNL1        0.1208
      3 N          61.0215   88.5671    9.8115 N.ar    1  UNL1       -0.1923
      4 C          61.7815   88.8385   11.0759 C.ar    1  UNL1        0.3055
      5 N          62.4621   87.5674   11.4896 N.ar    1  UNL1       -0.2795
      6 C          63.3298   87.3854   12.6995 C.3     1  UNL1        0.1351
      7 C          62.6362   84.3328   11.8016 C.2     1  UNL1       -0.0054
      8 C          62.5915   85.0857   10.5050 C.2     1  UNL1        0.0160
      9 C          63.1049   82.9081   11.8257 C.3     1  UNL1        0.0939
     10 C          64.5086   82.5733   11.4162 C.3     1  UNL1        0.0262
     11 C          61.0107   80.4697   14.1534 C.3     1  UNL1        0.0946
     12 C          61.9456   81.5595   13.7197 C.2     1  UNL1        0.2232
     13 O          62.6564   82.3906   14.7465 O.2     1  UNL1       -0.2751
     14 N          62.1699   81.8182   12.2593 N.am    1  UNL1       -0.3022
     15 H          61.7034   81.2728   11.5854 H       1  UNL1        0.1497
     16 O          61.8490   90.1507   11.7995 O.3     1  UNL1       -0.4226
     17 C          63.1038   90.9711   11.7494 C.ar    1  UNL1        0.1593
     18 C          63.5466   91.5860   10.4548 C.ar    1  UNL1        0.0416
     19 C          64.8013   92.4065   10.4047 C.ar    1  UNL1        0.0401
     20 C          65.6132   92.6120   11.6492 C.ar    1  UNL1        0.1396
     21 C          65.1704   91.9971   12.9437 C.ar    1  UNL1        0.0514
     22 C          63.9157   91.1767   12.9938 C.ar    1  UNL1        0.0952
     23 CL         63.4728   90.5617   14.2884 Cl      1  UNL1       -0.0790
     24 O          66.8680   93.4324   11.5991 O.3     1  UNL1       -0.4754
     25 C          66.8221   94.8427   11.0901 C.3     1  UNL1        0.2053
     26 C          67.1354   95.1315    9.6519 C.3     1  UNL1        0.0438
     27 C          67.2153   96.0995    8.5089 C.3     1  UNL1        0.0038
     28 C          67.5980   94.6637    8.3039 C.3     1  UNL1        0.0038
@<TRIPOS>BOND
     1    11    12    1
     2    12    13    2
     3    12    14   am
     4    14     9    1
     5     9    10    1
     6     9     7    1
     7     7     8    2
     8     8     1    1
     9     1     2   ar
    10     2     3   ar
    11     3     4   ar
    12     4    16    1
    13    16    17    1
    14    17    18   ar
    15    18    19   ar
    16    19    20   ar
    17    20    24    1
    18    24    25    1
    19    25    26    1
    20    26    27    1
    21    27    28    1
    22    20    21   ar
    23    21    22   ar
    24    22    23    1
    25     4     5   ar
    26     5     6    1
    27     5     1   ar
    28    22    17   ar
    29    28    26    1
    30    14    15    1
@<TRIPOS>MOLECULE
*****
 28 30 0 0 0
SMALL
GASTEIGER

@<TRIPOS>ATOM
      1 C          62.9688   84.8473    9.6371 C.ar    1  UNL1        0.0828
      2 C          63.8232   83.7995    8.9872 C.ar    1  UNL1        0.1208
      3 N          64.4156   82.9472   10.0700 N.ar    1  UNL1       -0.1923
      4 C          63.9275   83.4682   11.3892 C.ar    1  UNL1        0.3055
      5 N          63.0333   84.6424   11.1216 N.ar    1  UNL1       -0.2795
      6 C          62.3275   85.4671   12.1569 C.3     1  UNL1        0.1351
      7 C          60.7803   86.2173    9.3486 C.2     1  UNL1       -0.0054
      8 C          62.1873   85.9127    8.9272 C.2     1  UNL1        0.0160
      9 C          59.9987   87.2827    8.6387 C.3     1  UNL1        0.0939
     10 C          59.0146   86.9055    7.5713 C.3     1  UNL1        0.0262
     11 C          60.3550   90.5987   10.7896 C.3     1  UNL1        0.0946
     12 C          60.1525   89.1562   10.4321 C.2     1  UNL1        0.2232
     13 O          59.9013   88.1444   11.5106 O.2     1  UNL1       -0.2751
     14 N          60.2012   88.7254    8.9961 N.am    1  UNL1       -0.3022
     15 H          60.3661   89.3894    8.2883 H       1  UNL1        0.1497
     16 O          64.2728   82.9124   12.7389 O.3     1  UNL1       -0.4226
     17 C          64.0255   83.7297   13.9722 C.ar    1  UNL1        0.1593
     18 C          64.9660   84.8398   14.3373 C.ar    1  UNL1        0.0416
     19 C          64.7187   85.6571   15.5706 C.ar    1  UNL1        0.0401
     20 C          63.5310   85.3642   16.4387 C.ar    1  UNL1        0.1396
     21 C          62.5906   84.2541   16.0736 C.ar    1  UNL1        0.0514
     22 C          62.8379   83.4368   14.8403 C.ar    1  UNL1        0.0952
     23 CL         61.8975   82.3267   14.4752 Cl      1  UNL1       -0.0790
     24 O          63.2837   86.1814   17.6720 O.3     1  UNL1       -0.4754
     25 C          62.5456   87.4836   17.5733 C.3     1  UNL1        0.2053
     26 C          63.0936   88.5940   16.7266 C.3     1  UNL1        0.0438
     27 C          63.2881   90.0595   16.4730 C.3     1  UNL1        0.0038
     28 C          63.8481   89.0515   15.5137 C.3     1  UNL1        0.0038
@<TRIPOS>BOND
     1    11    12    1
     2    12    13    2
     3    12    14   am
     4    14     9    1
     5     9    10    1
     6     9     7    1
     7     7     8    2
     8     8     1    1
     9     1     2   ar
    10     2     3   ar
    11     3     4   ar
    12     4    16    1
    13    16    17    1
    14    17    18   ar
    15    18    19   ar
    16    19    20   ar
    17    20    24    1
    18    24    25    1
    19    25    26    1
    20    26    27    1
    21    27    28    1
    22    20    21   ar
    23    21    22   ar
    24    22    23    1
    25     4     5   ar
    26     5     6    1
    27     5     1   ar
    28    22    17   ar
    29    28    26    1
    30    14    15    1
@<TRIPOS>MOLECULE
*****
 28 30 0 0 0
SMALL
GASTEIGER

@<TRIPOS>ATOM
      1 C          64.1942   89.7251   13.6301 C.ar    1  UNL1        0.0828
      2 C          64.3925   88.6149   14.6192 C.ar    1  UNL1        0.1208
      3 N          63.7973   87.3660   14.0396 N.ar    1  UNL1       -0.1923
      4 C          63.2311   87.7042   12.6924 C.ar    1  UNL1        0.3055
      5 N          63.4764   89.1623   12.4393 N.ar    1  UNL1       -0.2795
      6 C          63.0744   89.9238   11.2111 C.3     1  UNL1        0.1351
      7 C          65.6190   91.7494   12.8413 C.2     1  UNL1       -0.0054
      8 C          64.6361   91.1482   13.8017 C.2     1  UNL1        0.0160
      9 C          66.0609   93.1725   13.0129 C.3     1  UNL1        0.0939
     10 C          66.0076   94.1197   11.8510 C.3     1  UNL1        0.0262
     11 C          68.4204   93.7357   16.1538 C.3     1  UNL1        0.0946
     12 C          67.9252   93.2598   14.8203 C.2     1  UNL1        0.2232
     13 O          68.7991   92.3954   13.9606 O.2     1  UNL1       -0.2751
     14 N          66.5561   93.6484   14.3464 N.am    1  UNL1       -0.3022
     15 H          65.9825   94.2157   14.9107 H       1  UNL1        0.1497
     16 O          62.5408   86.7518   11.7617 O.3     1  UNL1       -0.4226
     17 C          61.6290   87.2763   10.6924 C.ar    1  UNL1        0.1593
     18 C          60.5504   88.2585   11.0417 C.ar    1  UNL1        0.0416
     19 C          59.6387   88.7831    9.9723 C.ar    1  UNL1        0.0401
     20 C          59.8056   88.3254    8.5536 C.ar    1  UNL1        0.1396
     21 C          60.8841   87.3433    8.2043 C.ar    1  UNL1        0.0514
     22 C          61.7958   86.8187    9.2737 C.ar    1  UNL1        0.0952
     23 CL         62.8744   85.8365    8.9243 Cl      1  UNL1       -0.0790
     24 O          58.8938   88.8500    7.4842 O.3     1  UNL1       -0.4754
     25 C          59.4695   89.4481    6.2348 C.3     1  UNL1        0.2053
     26 C          58.7786   90.6003    5.5676 C.3     1  UNL1        0.0438
     27 C          58.8445   91.9223    4.8620 C.3     1  UNL1        0.0038
     28 C          57.5162   91.2739    5.1176 C.3     1  UNL1        0.0038
@<TRIPOS>BOND
     1    11    12    1
     2    12    13    2
     3    12    14   am
     4    14     9    1
     5     9    10    1
     6     9     7    1
     7     7     8    2
     8     8     1    1
     9     1     2   ar
    10     2     3   ar
    11     3     4   ar
    12     4    16    1
    13    16    17    1
    14    17    18   ar
    15    18    19   ar
    16    19    20   ar
    17    20    24    1
    18    24    25    1
    19    25    26    1
    20    26    27    1
    21    27    28    1
    22    20    21   ar
    23    21    22   ar
    24    22    23    1
    25     4     5   ar
    26     5     6    1
    27     5     1   ar
    28    22    17   ar
    29    28    26    1
    30    14    15    1
