@<TRIPOS>MOLECULE
*****
 53 56 0 0 0
SMALL
GASTEIGER

@<TRIPOS>ATOM
      1 C          62.4569   87.8128   11.1716 C.3     1  UNL1        0.0833
      2 C          60.7968   88.4463    9.2761 C.2     1  UNL1        0.2404
      3 O          60.2216   89.5281   10.1413 O.2     1  UNL1       -0.2733
      4 N          61.9145   87.5886    9.7912 N.am    1  UNL1       -0.3039
      5 H          62.2920   86.8786    9.2233 H       1  UNL1        0.1494
      6 C          60.2545   88.2221    7.8956 C.3     1  UNL1        0.1496
      7 N          58.9926   90.9911    5.3480 N.am    1  UNL1       -0.2567
      8 C          57.7017   91.5278    4.8044 C.3     1  UNL1        0.1168
      9 C          58.9781   89.8750    6.3500 C.2     1  UNL1        0.3046
     10 O          57.6726   89.2954    6.8083 O.2     1  UNL1       -0.2526
     11 N          60.2690   89.3383    6.8936 N.am    1  UNL1       -0.2824
     12 H          61.1258   89.7187    6.5929 H       1  UNL1        0.1514
     13 C          60.2980   91.5706    4.8898 C.3     1  UNL1        0.1413
     14 C          59.8177   93.3009    1.4487 C.ar    1  UNL1        0.0875
     15 N          59.2609   92.7602    2.7323 N.ar    1  UNL1       -0.2453
     16 C          60.4011   92.2095    3.5365 C.ar    1  UNL1        0.0858
     17 C          61.6625   92.4100    2.7499 C.ar    1  UNL1        0.0530
     18 S          61.3020   93.0845    1.4596 S.2     1  UNL1       -0.0705
     19 C          59.1782   95.4129    0.0773 C.3     1  UNL1        0.0069
     20 C          59.0287   93.9450    0.3475 C.3     1  UNL1        0.0465
     21 C          58.0902   93.1213   -0.4835 C.3     1  UNL1        0.0069
     22 C          59.6976   86.8817    7.5172 C.3     1  UNL1        0.0270
     23 C          60.5898   85.8460    6.8999 C.3     1  UNL1        0.0022
     24 C          58.2484   86.5771    7.7560 C.3     1  UNL1        0.0022
     25 C          63.1332   89.1081   11.5105 C.3     1  UNL1        0.0861
     26 C          62.7472   89.8528   12.7540 C.2     1  UNL1        0.1704
     27 O          61.3290   89.8152   13.2410 O.2     1  UNL1       -0.2943
     28 C          63.7796   90.6350   13.5107 C.3     1  UNL1        0.1365
     29 N          64.5981   91.6754   12.8052 N.am    1  UNL1       -0.2653
     30 C          65.9974   91.9652   13.2613 C.2     1  UNL1        0.4023
     31 O          66.5781   91.2147   14.4229 O.2     1  UNL1       -0.2264
     32 H          64.2169   92.1680   12.0427 H       1  UNL1        0.1531
     33 O          66.8159   93.0056   12.5558 O.3     1  UNL1       -0.4291
     34 C          66.1686   94.2708   12.0760 C.3     1  UNL1        0.2447
     35 C          66.6536   94.9317   10.8198 C.ar    1  UNL1        0.0714
     36 C          67.2842   94.2411    9.6471 C.ar    1  UNL1        0.1053
     37 N          67.6134   95.2818    8.6183 N.ar    1  UNL1       -0.2350
     38 C          67.1863   96.6157    9.1552 C.ar    1  UNL1        0.1343
     39 S          66.5931   96.3993   10.5158 S.2     1  UNL1       -0.0652
     40 C          63.9934   90.3769   14.9727 C.3     1  UNL1        0.0536
     41 C          63.8270   88.9910   15.5218 C.ar    1  UNL1       -0.0201
     42 C          63.0258   88.7702   16.7705 C.ar    1  UNL1       -0.0042
     43 C          62.8595   87.3842   17.3196 C.ar    1  UNL1       -0.0003
     44 C          63.4944   86.2191   16.6200 C.ar    1  UNL1       -0.0000
     45 C          64.2956   86.4399   15.3713 C.ar    1  UNL1       -0.0003
     46 C          64.4619   87.8259   14.8222 C.ar    1  UNL1       -0.0042
     47 C          62.3229   86.7417   12.2132 C.3     1  UNL1        0.0463
     48 C          62.7385   85.3349   11.9000 C.ar    1  UNL1       -0.0205
     49 C          62.7938   84.3084   12.9924 C.ar    1  UNL1       -0.0042
     50 C          63.2094   82.9015   12.6792 C.ar    1  UNL1       -0.0003
     51 C          63.5696   82.5212   11.2736 C.ar    1  UNL1       -0.0000
     52 C          63.5142   83.5477   10.1813 C.ar    1  UNL1       -0.0003
     53 C          63.0987   84.9545   10.4945 C.ar    1  UNL1       -0.0042
@<TRIPOS>BOND
     1    19    20    1
     2    20    21    1
     3    20    14    1
     4    14    15   ar
     5    15    16   ar
     6    16    13    1
     7    13     7    1
     8     7     8    1
     9     7     9   am
    10     9    10    2
    11     9    11   am
    12     6    11    1
    13     6     2    1
    14     2     3    2
    15     2     4   am
    16     4     1    1
    17     1    25    1
    18    25    26    1
    19    26    27    2
    20    26    28    1
    21    28    40    1
    22    40    41    1
    23    41    42   ar
    24    42    43   ar
    25    43    44   ar
    26    44    45   ar
    27    45    46   ar
    28    28    29    1
    29    29    30   am
    30    30    31    2
    31    30    33    1
    32    33    34    1
    33    34    35    1
    34    35    36   ar
    35    36    37   ar
    36    37    38   ar
    37    38    39   ar
    38     1    47    1
    39    47    48    1
    40    48    49   ar
    41    49    50   ar
    42    50    51   ar
    43    51    52   ar
    44    52    53   ar
    45     6    22    1
    46    22    23    1
    47    22    24    1
    48    16    17   ar
    49    17    18   ar
    50    18    14   ar
    51    46    41   ar
    52    39    35   ar
    53    53    48   ar
    54    11    12    1
    55     4     5    1
    56    29    32    1
@<TRIPOS>MOLECULE
*****
 53 56 0 0 0
SMALL
GASTEIGER

@<TRIPOS>ATOM
      1 C          62.5860   85.9547   10.8566 C.3     1  UNL1        0.0833
      2 C          61.0843   88.0452   11.2103 C.2     1  UNL1        0.2404
      3 O          60.0511   87.4578   10.2952 O.2     1  UNL1       -0.2733
      4 N          62.3518   87.2936   11.4910 N.am    1  UNL1       -0.3039
      5 H          63.0300   87.6792   12.0915 H       1  UNL1        0.1494
      6 C          60.8502   89.3841   11.8446 C.3     1  UNL1        0.1496
      7 N          64.0136   91.7555   11.4989 N.am    1  UNL1       -0.2567
      8 C          64.8463   92.3853   10.4219 C.3     1  UNL1        0.1168
      9 C          62.8483   90.8847   11.1333 C.2     1  UNL1        0.3046
     10 O          62.5155   90.6438    9.6906 O.2     1  UNL1       -0.2526
     11 N          62.0156   90.2549   12.2103 N.am    1  UNL1       -0.2824
     12 H          62.2339   90.4130   13.1572 H       1  UNL1        0.1514
     13 C          64.3463   91.9963   12.9416 C.3     1  UNL1        0.1413
     14 C          67.7591   92.5333   14.7108 C.ar    1  UNL1        0.0875
     15 N          66.2593   92.5546   14.7232 N.ar    1  UNL1       -0.2453
     16 C          65.7784   92.1196   13.3706 C.ar    1  UNL1        0.0858
     17 C          66.9810   91.8295   12.5223 C.ar    1  UNL1        0.0530
     18 S          68.2052   92.0852   13.3505 S.2     1  UNL1       -0.0705
     19 C          69.0562   91.8516   16.8562 C.3     1  UNL1        0.0069
     20 C          68.6555   92.8964   15.8574 C.3     1  UNL1        0.0465
     21 C          69.1512   94.3044   16.0052 C.3     1  UNL1        0.0069
     22 C          59.4507   89.8523   12.1132 C.3     1  UNL1        0.0270
     23 C          58.5356   89.0284   12.9699 C.3     1  UNL1        0.0022
     24 C          58.9663   91.1444   11.5252 C.3     1  UNL1        0.0022
     25 C          62.1859   84.7024   11.5788 C.3     1  UNL1        0.0861
     26 C          63.1304   84.0647   12.5540 C.2     1  UNL1        0.1704
     27 O          64.6110   84.1494   12.3290 O.2     1  UNL1       -0.2943
     28 C          62.5944   83.3423   13.7544 C.3     1  UNL1        0.1365
     29 N          61.9474   84.1132   14.8667 N.am    1  UNL1       -0.2653
     30 C          62.7902   84.7110   15.9541 C.2     1  UNL1        0.4023
     31 O          64.2799   84.5379   15.9292 O.2     1  UNL1       -0.2264
     32 H          60.9696   84.2269   14.8830 H       1  UNL1        0.1531
     33 O          62.1432   85.4820   17.0663 O.3     1  UNL1       -0.4291
     34 C          62.7650   86.7559   17.5565 C.3     1  UNL1        0.2447
     35 C          63.1676   87.8190   16.5779 C.ar    1  UNL1        0.0714
     36 C          63.7804   87.5887   15.2283 C.ar    1  UNL1        0.1053
     37 N          64.0196   88.9265   14.5934 N.ar    1  UNL1       -0.2350
     38 C          63.5546   89.9837   15.5506 C.ar    1  UNL1        0.1343
     39 S          63.0281   89.2992   16.7771 S.2     1  UNL1       -0.0652
     40 C          62.7054   81.8490   13.8426 C.3     1  UNL1        0.0536
     41 C          62.7629   81.0260   12.5898 C.ar    1  UNL1       -0.0201
     42 C          63.1129   81.6731   11.2827 C.ar    1  UNL1       -0.0042
     43 C          63.1705   80.8501   10.0300 C.ar    1  UNL1       -0.0003
     44 C          62.8780   79.3799   10.0845 C.ar    1  UNL1       -0.0000
     45 C          62.5280   78.7327   11.3916 C.ar    1  UNL1       -0.0003
     46 C          62.4704   79.5558   12.6443 C.ar    1  UNL1       -0.0042
     47 C          63.2203   85.8681    9.5001 C.3     1  UNL1        0.0463
     48 C          62.3991   85.4605    8.3128 C.ar    1  UNL1       -0.0205
     49 C          63.0206   84.6512    7.2133 C.ar    1  UNL1       -0.0042
     50 C          62.1994   84.2436    6.0260 C.ar    1  UNL1       -0.0003
     51 C          60.7568   84.6452    5.9383 C.ar    1  UNL1       -0.0000
     52 C          60.1355   85.4545    7.0378 C.ar    1  UNL1       -0.0003
     53 C          60.9566   85.8621    8.2251 C.ar    1  UNL1       -0.0042
@<TRIPOS>BOND
     1    19    20    1
     2    20    21    1
     3    20    14    1
     4    14    15   ar
     5    15    16   ar
     6    16    13    1
     7    13     7    1
     8     7     8    1
     9     7     9   am
    10     9    10    2
    11     9    11   am
    12     6    11    1
    13     6     2    1
    14     2     3    2
    15     2     4   am
    16     4     1    1
    17     1    25    1
    18    25    26    1
    19    26    27    2
    20    26    28    1
    21    28    40    1
    22    40    41    1
    23    41    42   ar
    24    42    43   ar
    25    43    44   ar
    26    44    45   ar
    27    45    46   ar
    28    28    29    1
    29    29    30   am
    30    30    31    2
    31    30    33    1
    32    33    34    1
    33    34    35    1
    34    35    36   ar
    35    36    37   ar
    36    37    38   ar
    37    38    39   ar
    38     1    47    1
    39    47    48    1
    40    48    49   ar
    41    49    50   ar
    42    50    51   ar
    43    51    52   ar
    44    52    53   ar
    45     6    22    1
    46    22    23    1
    47    22    24    1
    48    16    17   ar
    49    17    18   ar
    50    18    14   ar
    51    46    41   ar
    52    39    35   ar
    53    53    48   ar
    54    11    12    1
    55     4     5    1
    56    29    32    1
@<TRIPOS>MOLECULE
*****
 53 56 0 0 0
SMALL
GASTEIGER

@<TRIPOS>ATOM
      1 C          62.4969   87.5840   11.1552 C.3     1  UNL1        0.0833
      2 C          60.8105   88.2458    9.2929 C.2     1  UNL1        0.2404
      3 O          60.1974   89.2627   10.2095 O.2     1  UNL1       -0.2733
      4 N          61.9603   87.4064    9.7658 N.am    1  UNL1       -0.3039
      5 H          62.3627   86.7390    9.1642 H       1  UNL1        0.1494
      6 C          60.2739   88.0683    7.9035 C.3     1  UNL1        0.1496
      7 N          59.0291   90.9201    5.4402 N.am    1  UNL1       -0.2567
      8 C          57.7418   91.4748    4.9061 C.3     1  UNL1        0.1168
      9 C          59.0079   89.7716    6.4047 C.2     1  UNL1        0.3046
     10 O          57.6994   89.1777    6.8353 O.2     1  UNL1       -0.2526
     11 N          60.2951   89.2169    6.9388 N.am    1  UNL1       -0.2824
     12 H          61.1539   89.6066    6.6563 H       1  UNL1        0.1514
     13 C          60.3375   91.5139    5.0097 C.3     1  UNL1        0.1413
     14 C          59.9290   93.2771    1.5761 C.ar    1  UNL1        0.0875
     15 N          59.3548   92.7759    2.8680 N.ar    1  UNL1       -0.2453
     16 C          60.4651   92.1451    3.6549 C.ar    1  UNL1        0.0858
     17 C          61.7256   92.2565    2.8493 C.ar    1  UNL1        0.0530
     18 S          61.3942   92.9560    1.5645 S.2     1  UNL1       -0.0705
     19 C          58.2104   93.2078   -0.3712 C.3     1  UNL1        0.0069
     20 C          59.1710   93.9765    0.4868 C.3     1  UNL1        0.0465
     21 C          59.3737   95.4446    0.2557 C.3     1  UNL1        0.0069
     22 C          59.7161   86.7423    7.4786 C.3     1  UNL1        0.0270
     23 C          60.5968   85.7455    6.7853 C.3     1  UNL1        0.0022
     24 C          58.2775   86.4131    7.7471 C.3     1  UNL1        0.0022
     25 C          63.0471   88.9123   11.5827 C.3     1  UNL1        0.0861
     26 C          62.5159   89.5827   12.8149 C.2     1  UNL1        0.1704
     27 O          61.0391   89.7875   12.9797 O.2     1  UNL1       -0.2943
     28 C          63.4615   90.0483   13.8822 C.3     1  UNL1        0.1365
     29 N          63.8916   89.1053   14.9666 N.am    1  UNL1       -0.2653
     30 C          62.9588   88.7873   16.0975 C.2     1  UNL1        0.4023
     31 O          61.5961   89.4123   16.1441 O.2     1  UNL1       -0.2264
     32 H          64.7860   88.6951   14.9360 H       1  UNL1        0.1531
     33 O          63.3889   87.8443   17.1818 O.3     1  UNL1       -0.4291
     34 C          62.8419   86.4483   17.2222 C.3     1  UNL1        0.2447
     35 C          63.4241   85.3886   16.3345 C.ar    1  UNL1        0.0714
     36 C          62.9557   83.9671   16.2343 C.ar    1  UNL1        0.1053
     37 N          63.8191   83.2643   15.2290 N.ar    1  UNL1       -0.2350
     38 C          64.8212   84.2514   14.7079 C.ar    1  UNL1        0.1343
     39 S          64.5771   85.5643   15.3912 S.2     1  UNL1       -0.0652
     40 C          63.9769   91.4568   13.8652 C.3     1  UNL1        0.0536
     41 C          65.3673   91.7526   14.3442 C.ar    1  UNL1       -0.0201
     42 C          65.5921   92.2205   15.7515 C.ar    1  UNL1       -0.0042
     43 C          66.9825   92.5162   16.2304 C.ar    1  UNL1       -0.0003
     44 C          68.1480   92.3439   15.3020 C.ar    1  UNL1       -0.0000
     45 C          67.9232   91.8760   13.8947 C.ar    1  UNL1       -0.0003
     46 C          66.5329   91.5803   13.4158 C.ar    1  UNL1       -0.0042
     47 C          62.4832   86.4331   12.1172 C.3     1  UNL1        0.0463
     48 C          62.7842   85.0461   11.6317 C.ar    1  UNL1       -0.0205
     49 C          62.3838   83.8592   12.4570 C.ar    1  UNL1       -0.0042
     50 C          62.6848   82.4722   11.9714 C.ar    1  UNL1       -0.0003
     51 C          63.3862   82.2722   10.6606 C.ar    1  UNL1       -0.0000
     52 C          63.7865   83.4591    9.8355 C.ar    1  UNL1       -0.0003
     53 C          63.4855   84.8461   10.3210 C.ar    1  UNL1       -0.0042
@<TRIPOS>BOND
     1    19    20    1
     2    20    21    1
     3    20    14    1
     4    14    15   ar
     5    15    16   ar
     6    16    13    1
     7    13     7    1
     8     7     8    1
     9     7     9   am
    10     9    10    2
    11     9    11   am
    12     6    11    1
    13     6     2    1
    14     2     3    2
    15     2     4   am
    16     4     1    1
    17     1    25    1
    18    25    26    1
    19    26    27    2
    20    26    28    1
    21    28    40    1
    22    40    41    1
    23    41    42   ar
    24    42    43   ar
    25    43    44   ar
    26    44    45   ar
    27    45    46   ar
    28    28    29    1
    29    29    30   am
    30    30    31    2
    31    30    33    1
    32    33    34    1
    33    34    35    1
    34    35    36   ar
    35    36    37   ar
    36    37    38   ar
    37    38    39   ar
    38     1    47    1
    39    47    48    1
    40    48    49   ar
    41    49    50   ar
    42    50    51   ar
    43    51    52   ar
    44    52    53   ar
    45     6    22    1
    46    22    23    1
    47    22    24    1
    48    16    17   ar
    49    17    18   ar
    50    18    14   ar
    51    46    41   ar
    52    39    35   ar
    53    53    48   ar
    54    11    12    1
    55     4     5    1
    56    29    32    1
@<TRIPOS>MOLECULE
*****
 53 56 0 0 0
SMALL
GASTEIGER

@<TRIPOS>ATOM
      1 C          63.7773   90.3791   14.8829 C.3     1  UNL1        0.0833
      2 C          63.8767   87.8147   15.2886 C.2     1  UNL1        0.2404
      3 O          65.2608   87.7771   14.7117 O.2     1  UNL1       -0.2733
      4 N          63.1349   89.1158   15.3742 N.am    1  UNL1       -0.3039
      5 H          62.2265   89.1405   15.7528 H       1  UNL1        0.1494
      6 C          63.2343   86.5514   15.7798 C.3     1  UNL1        0.1496
      7 N          63.5445   83.9285   12.8177 N.am    1  UNL1       -0.2567
      8 C          63.4107   83.8835   11.3244 C.3     1  UNL1        0.1168
      9 C          63.3225   85.2174   13.5521 C.2     1  UNL1        0.3046
     10 O          62.9666   86.4614   12.7931 O.2     1  UNL1       -0.2526
     11 N          63.4563   85.2624   15.0454 N.am    1  UNL1       -0.2824
     12 H          63.6899   84.4460   15.5436 H       1  UNL1        0.1514
     13 C          63.9003   82.6846   13.5766 C.3     1  UNL1        0.1413
     14 C          60.8240   80.3558   13.9986 C.ar    1  UNL1        0.0875
     15 N          61.4334   81.7255   13.9505 N.ar    1  UNL1       -0.2453
     16 C          62.9040   81.5699   13.6992 C.ar    1  UNL1        0.0858
     17 C          63.2034   80.1040   13.5920 C.ar    1  UNL1        0.0530
     18 S          61.9179   79.3536   13.7770 S.2     1  UNL1       -0.0705
     19 C          58.9585   78.6524   14.6057 C.3     1  UNL1        0.0069
     20 C          59.3750   80.0430   14.2280 C.3     1  UNL1        0.0465
     21 C          58.3424   81.1209   14.0797 C.3     1  UNL1        0.0069
     22 C          62.3699   86.5771   17.0054 C.3     1  UNL1        0.0270
     23 C          62.9802   86.8504   18.3481 C.3     1  UNL1        0.0022
     24 C          60.8952   86.3293   16.8883 C.3     1  UNL1        0.0022
     25 C          63.7028   90.7422   13.4295 C.3     1  UNL1        0.0861
     26 C          62.5696   90.2362   12.5871 C.2     1  UNL1        0.1704
     27 O          61.3935   89.5679   13.2353 O.2     1  UNL1       -0.2943
     28 C          62.6125   90.3983   11.0965 C.3     1  UNL1        0.1365
     29 N          63.9210   90.6459   10.4063 N.am    1  UNL1       -0.2653
     30 C          64.7393   91.8522   10.7605 C.2     1  UNL1        0.4023
     31 O          64.2490   92.8108   11.8048 O.2     1  UNL1       -0.2264
     32 H          64.2429   90.0167    9.7209 H       1  UNL1        0.1531
     33 O          66.0479   92.0998   10.0704 O.3     1  UNL1       -0.4291
     34 C          66.9736   93.1654   10.5778 C.3     1  UNL1        0.2447
     35 C          66.9285   94.5426    9.9850 C.ar    1  UNL1        0.0714
     36 C          67.7693   95.0407    8.8471 C.ar    1  UNL1        0.1053
     37 N          67.3951   96.4695    8.5849 N.ar    1  UNL1       -0.2350
     38 C          66.3229   96.8543    9.5608 C.ar    1  UNL1        0.1343
     39 S          66.0345   95.6634   10.4260 S.2     1  UNL1       -0.0652
     40 C          61.3468   90.3129   10.2961 C.3     1  UNL1        0.0536
     41 C          61.0099   89.0512    9.5579 C.ar    1  UNL1       -0.0201
     42 C          61.7726   87.7908    9.8400 C.ar    1  UNL1       -0.0042
     43 C          61.4357   86.5293    9.1018 C.ar    1  UNL1       -0.0003
     44 C          60.3360   86.5281    8.0816 C.ar    1  UNL1       -0.0000
     45 C          59.5733   87.7885    7.7996 C.ar    1  UNL1       -0.0003
     46 C          59.9102   89.0501    8.5377 C.ar    1  UNL1       -0.0042
     47 C          64.4942   91.2792   15.8452 C.3     1  UNL1        0.0463
     48 C          65.8599   91.8007   15.5090 C.ar    1  UNL1       -0.0205
     49 C          66.5400   92.7704   16.4296 C.ar    1  UNL1       -0.0042
     50 C          67.9056   93.2919   16.0934 C.ar    1  UNL1       -0.0003
     51 C          68.5912   92.8437   14.8367 C.ar    1  UNL1       -0.0000
     52 C          67.9112   91.8740   13.9163 C.ar    1  UNL1       -0.0003
     53 C          66.5455   91.3526   14.2524 C.ar    1  UNL1       -0.0042
@<TRIPOS>BOND
     1    19    20    1
     2    20    21    1
     3    20    14    1
     4    14    15   ar
     5    15    16   ar
     6    16    13    1
     7    13     7    1
     8     7     8    1
     9     7     9   am
    10     9    10    2
    11     9    11   am
    12     6    11    1
    13     6     2    1
    14     2     3    2
    15     2     4   am
    16     4     1    1
    17     1    25    1
    18    25    26    1
    19    26    27    2
    20    26    28    1
    21    28    40    1
    22    40    41    1
    23    41    42   ar
    24    42    43   ar
    25    43    44   ar
    26    44    45   ar
    27    45    46   ar
    28    28    29    1
    29    29    30   am
    30    30    31    2
    31    30    33    1
    32    33    34    1
    33    34    35    1
    34    35    36   ar
    35    36    37   ar
    36    37    38   ar
    37    38    39   ar
    38     1    47    1
    39    47    48    1
    40    48    49   ar
    41    49    50   ar
    42    50    51   ar
    43    51    52   ar
    44    52    53   ar
    45     6    22    1
    46    22    23    1
    47    22    24    1
    48    16    17   ar
    49    17    18   ar
    50    18    14   ar
    51    46    41   ar
    52    39    35   ar
    53    53    48   ar
    54    11    12    1
    55     4     5    1
    56    29    32    1
@<TRIPOS>MOLECULE
*****
 53 56 0 0 0
SMALL
GASTEIGER

@<TRIPOS>ATOM
      1 C          62.8808   87.4818   12.3637 C.3     1  UNL1        0.0833
      2 C          61.4761   89.1254   10.9230 C.2     1  UNL1        0.2404
      3 O          62.6782   89.4057   10.0707 O.2     1  UNL1       -0.2733
      4 N          61.5774   88.1635   12.0695 N.am    1  UNL1       -0.3039
      5 H          60.7884   87.9795   12.6289 H       1  UNL1        0.1494
      6 C          60.1727   89.8071   10.6288 C.3     1  UNL1        0.1496
      7 N          59.3453   89.0745    6.8172 N.am    1  UNL1       -0.2567
      8 C          59.3879   87.9313    5.8470 C.3     1  UNL1        0.1168
      9 C          59.7803   88.8692    8.2379 C.2     1  UNL1        0.3046
     10 O          60.2580   87.5206    8.6886 O.2     1  UNL1       -0.2526
     11 N          59.7377   90.0125    9.2080 N.am    1  UNL1       -0.2824
     12 H          59.4242   90.8976    8.9122 H       1  UNL1        0.1514
     13 C          58.8677   90.4231    6.3665 C.3     1  UNL1        0.1413
     14 C          61.2741   91.8350    3.6681 C.ar    1  UNL1        0.0875
     15 N          60.9941   90.9235    4.8260 N.ar    1  UNL1       -0.2453
     16 C          59.5690   91.1311    5.2453 C.ar    1  UNL1        0.0858
     17 C          58.9681   92.1709    4.3465 C.ar    1  UNL1        0.0530
     18 S          60.0219   92.6059    3.3717 S.2     1  UNL1       -0.0705
     19 C          63.6495   90.9255    3.1388 C.3     1  UNL1        0.0069
     20 C          62.5774   91.9546    2.9352 C.3     1  UNL1        0.0465
     21 C          62.8086   93.1033    1.9988 C.3     1  UNL1        0.0069
     22 C          59.3044   90.2833   11.7554 C.3     1  UNL1        0.0270
     23 C          58.9821   89.3626   12.8948 C.3     1  UNL1        0.0022
     24 C          58.7584   91.6804   11.7425 C.3     1  UNL1        0.0022
     25 C          63.8889   88.1439   13.2554 C.3     1  UNL1        0.0861
     26 C          63.6052   89.4997   13.8310 C.2     1  UNL1        0.1704
     27 O          62.2474   89.8086   14.3885 O.2     1  UNL1       -0.2943
     28 C          64.6794   90.5466   13.8492 C.3     1  UNL1        0.1365
     29 N          65.2463   91.0619   12.5595 N.am    1  UNL1       -0.2653
     30 C          64.3663   91.8016   11.5960 C.2     1  UNL1        0.4023
     31 O          62.9195   92.0260   11.9220 O.2     1  UNL1       -0.2264
     32 H          66.1959   90.9146   12.3455 H       1  UNL1        0.1531
     33 O          64.9331   92.3170   10.3064 O.3     1  UNL1       -0.4291
     34 C          66.3441   92.8234   10.2566 C.3     1  UNL1        0.2447
     35 C          66.6090   94.2936   10.1206 C.ar    1  UNL1        0.0714
     36 C          66.2274   95.3535   11.1110 C.ar    1  UNL1        0.1053
     37 N          66.6845   96.6770   10.5728 N.ar    1  UNL1       -0.2350
     38 C          67.3486   96.4349    9.2498 C.ar    1  UNL1        0.1343
     39 S          67.3019   94.9619    8.9703 S.2     1  UNL1       -0.0652
     40 C          65.1867   91.0780   15.1569 C.3     1  UNL1        0.0536
     41 C          66.5100   91.7817   15.2179 C.ar    1  UNL1       -0.0201
     42 C          67.5800   91.4549   14.2187 C.ar    1  UNL1       -0.0042
     43 C          68.9033   92.1585   14.2798 C.ar    1  UNL1       -0.0003
     44 C          69.1566   93.1890   15.3399 C.ar    1  UNL1       -0.0000
     45 C          68.0866   93.5158   16.3391 C.ar    1  UNL1       -0.0003
     46 C          66.7633   92.8122   16.2780 C.ar    1  UNL1       -0.0042
     47 C          63.1760   86.1380   11.7661 C.3     1  UNL1        0.0463
     48 C          62.9373   84.8923   12.5669 C.ar    1  UNL1       -0.0205
     49 C          62.7142   83.5833   11.8691 C.ar    1  UNL1       -0.0042
     50 C          62.4755   82.3376   12.6699 C.ar    1  UNL1       -0.0003
     51 C          62.4600   82.4009   14.1685 C.ar    1  UNL1       -0.0000
     52 C          62.6831   83.7098   14.8663 C.ar    1  UNL1       -0.0003
     53 C          62.9218   84.9555   14.0655 C.ar    1  UNL1       -0.0042
@<TRIPOS>BOND
     1    19    20    1
     2    20    21    1
     3    20    14    1
     4    14    15   ar
     5    15    16   ar
     6    16    13    1
     7    13     7    1
     8     7     8    1
     9     7     9   am
    10     9    10    2
    11     9    11   am
    12     6    11    1
    13     6     2    1
    14     2     3    2
    15     2     4   am
    16     4     1    1
    17     1    25    1
    18    25    26    1
    19    26    27    2
    20    26    28    1
    21    28    40    1
    22    40    41    1
    23    41    42   ar
    24    42    43   ar
    25    43    44   ar
    26    44    45   ar
    27    45    46   ar
    28    28    29    1
    29    29    30   am
    30    30    31    2
    31    30    33    1
    32    33    34    1
    33    34    35    1
    34    35    36   ar
    35    36    37   ar
    36    37    38   ar
    37    38    39   ar
    38     1    47    1
    39    47    48    1
    40    48    49   ar
    41    49    50   ar
    42    50    51   ar
    43    51    52   ar
    44    52    53   ar
    45     6    22    1
    46    22    23    1
    47    22    24    1
    48    16    17   ar
    49    17    18   ar
    50    18    14   ar
    51    46    41   ar
    52    39    35   ar
    53    53    48   ar
    54    11    12    1
    55     4     5    1
    56    29    32    1
@<TRIPOS>MOLECULE
*****
 53 56 0 0 0
SMALL
GASTEIGER

@<TRIPOS>ATOM
      1 C          59.0606   94.5265   -0.9151 C.3     1  UNL1        0.0833
      2 C          56.7990   94.2928   -2.1723 C.2     1  UNL1        0.2404
      3 O          56.3749   93.2227   -1.2105 O.2     1  UNL1       -0.2733
      4 N          58.1418   94.9447   -2.0246 N.am    1  UNL1       -0.3039
      5 H          58.4202   95.6470   -2.6559 H       1  UNL1        0.1494
      6 C          55.8802   94.7109   -3.2818 C.3     1  UNL1        0.1496
      7 N          56.6871   92.7336   -6.6268 N.am    1  UNL1       -0.2567
      8 C          56.7541   91.3184   -7.1194 C.3     1  UNL1        0.1168
      9 C          56.3172   93.0147   -5.2007 C.2     1  UNL1        0.3046
     10 O          56.0141   91.8805   -4.2669 O.2     1  UNL1       -0.2526
     11 N          56.2502   94.4299   -4.7081 N.am    1  UNL1       -0.2824
     12 H          56.4491   95.1743   -5.3209 H       1  UNL1        0.1514
     13 C          56.9901   93.8678   -7.5605 C.3     1  UNL1        0.1413
     14 C          60.5614   95.2849   -7.0095 C.ar    1  UNL1        0.0875
     15 N          59.6149   94.1271   -7.1263 N.ar    1  UNL1       -0.2453
     16 C          58.2416   94.6748   -7.3790 C.ar    1  UNL1        0.0858
     17 C          58.3392   96.1711   -7.4185 C.ar    1  UNL1        0.0530
     18 S          59.7730   96.5482   -7.1901 S.2     1  UNL1       -0.0705
     19 C          62.8125   96.4276   -6.3955 C.3     1  UNL1        0.0069
     20 C          62.0372   95.1953   -6.7566 C.3     1  UNL1        0.0465
     21 C          62.7377   93.8733   -6.8647 C.3     1  UNL1        0.0069
     22 C          54.5915   95.4101   -2.9651 C.3     1  UNL1        0.0270
     23 C          53.8396   96.1242   -4.0490 C.3     1  UNL1        0.0022
     24 C          54.0547   95.3952   -1.5646 C.3     1  UNL1        0.0022
     25 C          58.6676   93.4067    0.0022 C.3     1  UNL1        0.0861
     26 C          59.7050   92.7333    0.8508 C.2     1  UNL1        0.1704
     27 O          60.5273   91.6144    0.2834 O.2     1  UNL1       -0.2943
     28 C          59.9202   93.1788    2.2670 C.3     1  UNL1        0.1365
     29 N          59.1237   92.5597    3.3771 N.am    1  UNL1       -0.2653
     30 C          59.8194   91.7898    4.4603 C.2     1  UNL1        0.4023
     31 O          61.3116   91.6390    4.4334 O.2     1  UNL1       -0.2264
     32 H          58.1443   92.6587    3.3948 H       1  UNL1        0.1531
     33 O          59.0230   91.1708    5.5705 O.3     1  UNL1       -0.4291
     34 C          59.0210   89.6818    5.7522 C.3     1  UNL1        0.2447
     35 C          59.4224   89.0864    7.0691 C.ar    1  UNL1        0.0714
     36 C          60.0027   89.8325    8.2338 C.ar    1  UNL1        0.1053
     37 N          60.2530   88.8476    9.3371 N.ar    1  UNL1       -0.2350
     38 C          59.8274   87.4927    8.8542 C.ar    1  UNL1        0.1343
     39 S          59.3141   87.6403    7.4525 S.2     1  UNL1       -0.0652
     40 C          60.9317   94.2432    2.5729 C.3     1  UNL1        0.0536
     41 C          62.2995   94.1762    1.9607 C.ar    1  UNL1       -0.0201
     42 C          62.9741   92.8493    1.7753 C.ar    1  UNL1       -0.0042
     43 C          64.3418   92.7824    1.1632 C.ar    1  UNL1       -0.0003
     44 C          65.0350   94.0423    0.7365 C.ar    1  UNL1       -0.0000
     45 C          64.3605   95.3691    0.9219 C.ar    1  UNL1       -0.0003
     46 C          62.9928   95.4361    1.5340 C.ar    1  UNL1       -0.0042
     47 C          60.3724   95.2282   -0.7230 C.3     1  UNL1        0.0463
     48 C          61.5362   94.8986   -1.6101 C.ar    1  UNL1       -0.0205
     49 C          62.4506   95.9893   -2.0839 C.ar    1  UNL1       -0.0042
     50 C          63.6144   95.6597   -2.9710 C.ar    1  UNL1       -0.0003
     51 C          63.8639   94.2395   -3.3842 C.ar    1  UNL1       -0.0000
     52 C          62.9495   93.1489   -2.9104 C.ar    1  UNL1       -0.0003
     53 C          61.7857   93.4785   -2.0233 C.ar    1  UNL1       -0.0042
@<TRIPOS>BOND
     1    19    20    1
     2    20    21    1
     3    20    14    1
     4    14    15   ar
     5    15    16   ar
     6    16    13    1
     7    13     7    1
     8     7     8    1
     9     7     9   am
    10     9    10    2
    11     9    11   am
    12     6    11    1
    13     6     2    1
    14     2     3    2
    15     2     4   am
    16     4     1    1
    17     1    25    1
    18    25    26    1
    19    26    27    2
    20    26    28    1
    21    28    40    1
    22    40    41    1
    23    41    42   ar
    24    42    43   ar
    25    43    44   ar
    26    44    45   ar
    27    45    46   ar
    28    28    29    1
    29    29    30   am
    30    30    31    2
    31    30    33    1
    32    33    34    1
    33    34    35    1
    34    35    36   ar
    35    36    37   ar
    36    37    38   ar
    37    38    39   ar
    38     1    47    1
    39    47    48    1
    40    48    49   ar
    41    49    50   ar
    42    50    51   ar
    43    51    52   ar
    44    52    53   ar
    45     6    22    1
    46    22    23    1
    47    22    24    1
    48    16    17   ar
    49    17    18   ar
    50    18    14   ar
    51    46    41   ar
    52    39    35   ar
    53    53    48   ar
    54    11    12    1
    55     4     5    1
    56    29    32    1
@<TRIPOS>MOLECULE
*****
 53 56 0 0 0
SMALL
GASTEIGER

@<TRIPOS>ATOM
      1 C          64.0089   90.8627   15.0501 C.3     1  UNL1        0.0833
      2 C          64.2627   88.2846   15.2477 C.2     1  UNL1        0.2404
      3 O          65.6744   88.3855   14.7509 O.2     1  UNL1       -0.2733
      4 N          63.4299   89.5233   15.3973 N.am    1  UNL1       -0.3039
      5 H          62.5033   89.4570   15.7234 H       1  UNL1        0.1494
      6 C          63.6837   86.9451   15.5948 C.3     1  UNL1        0.1496
      7 N          63.5590   84.6719   12.3441 N.am    1  UNL1       -0.2567
      8 C          63.0354   84.7295   10.9397 C.3     1  UNL1        0.1168
      9 C          63.3595   85.8372   13.2672 C.2     1  UNL1        0.3046
     10 O          62.6363   87.0601   12.7860 O.2     1  UNL1       -0.2526
     11 N          63.8832   85.7797   14.6717 N.am    1  UNL1       -0.2824
     12 H          64.3579   84.9772   14.9876 H       1  UNL1        0.1514
     13 C          64.2822   83.4491   12.8254 C.3     1  UNL1        0.1413
     14 C          62.9614   80.0252   11.5614 C.ar    1  UNL1        0.0875
     15 N          63.6553   81.3326   11.3180 N.ar    1  UNL1       -0.2453
     16 C          63.6829   82.0907   12.6120 C.ar    1  UNL1        0.0858
     17 C          63.0060   81.2518   13.6552 C.ar    1  UNL1        0.0530
     18 S          62.5601   79.9753   13.0059 S.2     1  UNL1       -0.0705
     19 C          62.4381   79.3300    9.1133 C.3     1  UNL1        0.0069
     20 C          62.7124   78.9555   10.5397 C.3     1  UNL1        0.0465
     21 C          62.7377   77.5114   10.9444 C.3     1  UNL1        0.0069
     22 C          62.9052   86.7710   16.8651 C.3     1  UNL1        0.0270
     23 C          62.9286   87.8447   17.9123 C.3     1  UNL1        0.0022
     24 C          62.1032   85.5232   17.0881 C.3     1  UNL1        0.0022
     25 C          63.6189   91.5392   13.7694 C.3     1  UNL1        0.0861
     26 C          63.8349   90.8438   12.4580 C.2     1  UNL1        0.1704
     27 O          64.0333   89.3575   12.4210 O.2     1  UNL1       -0.2943
     28 C          63.8523   91.6348   11.1836 C.3     1  UNL1        0.1365
     29 N          63.1233   91.1263    9.9753 N.am    1  UNL1       -0.2653
     30 C          61.7625   90.5127   10.1235 C.2     1  UNL1        0.4023
     31 O          61.1308   90.4077   11.4799 O.2     1  UNL1       -0.2264
     32 H          63.5379   91.1952    9.0850 H       1  UNL1        0.1531
     33 O          61.0334   90.0042    8.9152 O.3     1  UNL1       -0.4291
     34 C          59.9603   88.9674    9.0679 C.3     1  UNL1        0.2447
     35 C          60.1237   87.6193    8.4307 C.ar    1  UNL1        0.0714
     36 C          59.0966   86.9048    7.6034 C.ar    1  UNL1        0.1053
     37 N          59.6810   85.5930    7.1702 N.ar    1  UNL1       -0.2350
     38 C          61.0693   85.4967    7.7299 C.ar    1  UNL1        0.1343
     39 S          61.3429   86.7491    8.5089 S.2     1  UNL1       -0.0652
     40 C          64.5987   92.9341   11.1174 C.3     1  UNL1        0.0536
     41 C          65.9397   92.9955   10.4480 C.ar    1  UNL1       -0.0201
     42 C          66.8485   91.8026   10.4786 C.ar    1  UNL1       -0.0042
     43 C          68.1895   91.8641    9.8092 C.ar    1  UNL1       -0.0003
     44 C          68.6215   93.1184    9.1092 C.ar    1  UNL1       -0.0000
     45 C          67.7127   94.3113    9.0787 C.ar    1  UNL1       -0.0003
     46 C          66.3718   94.2499    9.7481 C.ar    1  UNL1       -0.0042
     47 C          64.9778   91.5258   15.9838 C.3     1  UNL1        0.0463
     48 C          66.3396   91.9210   15.4947 C.ar    1  UNL1       -0.0205
     49 C          67.2112   92.8055   16.3362 C.ar    1  UNL1       -0.0042
     50 C          68.5731   93.2008   15.8471 C.ar    1  UNL1       -0.0003
     51 C          69.0633   92.7116   14.5165 C.ar    1  UNL1       -0.0000
     52 C          68.1917   91.8271   13.6751 C.ar    1  UNL1       -0.0003
     53 C          66.8299   91.4319   14.1642 C.ar    1  UNL1       -0.0042
@<TRIPOS>BOND
     1    19    20    1
     2    20    21    1
     3    20    14    1
     4    14    15   ar
     5    15    16   ar
     6    16    13    1
     7    13     7    1
     8     7     8    1
     9     7     9   am
    10     9    10    2
    11     9    11   am
    12     6    11    1
    13     6     2    1
    14     2     3    2
    15     2     4   am
    16     4     1    1
    17     1    25    1
    18    25    26    1
    19    26    27    2
    20    26    28    1
    21    28    40    1
    22    40    41    1
    23    41    42   ar
    24    42    43   ar
    25    43    44   ar
    26    44    45   ar
    27    45    46   ar
    28    28    29    1
    29    29    30   am
    30    30    31    2
    31    30    33    1
    32    33    34    1
    33    34    35    1
    34    35    36   ar
    35    36    37   ar
    36    37    38   ar
    37    38    39   ar
    38     1    47    1
    39    47    48    1
    40    48    49   ar
    41    49    50   ar
    42    50    51   ar
    43    51    52   ar
    44    52    53   ar
    45     6    22    1
    46    22    23    1
    47    22    24    1
    48    16    17   ar
    49    17    18   ar
    50    18    14   ar
    51    46    41   ar
    52    39    35   ar
    53    53    48   ar
    54    11    12    1
    55     4     5    1
    56    29    32    1
@<TRIPOS>MOLECULE
*****
 53 56 0 0 0
SMALL
GASTEIGER

@<TRIPOS>ATOM
      1 C          63.1918   85.0678   13.7156 C.3     1  UNL1        0.0833
      2 C          63.7011   87.5876   14.0921 C.2     1  UNL1        0.2404
      3 O          63.6690   87.8155   12.6099 O.2     1  UNL1       -0.2733
      4 N          63.4624   86.2137   14.6450 N.am    1  UNL1       -0.3039
      5 H          63.4835   86.0641   15.6178 H       1  UNL1        0.1494
      6 C          63.9717   88.7334   15.0215 C.3     1  UNL1        0.1496
      7 N          66.2954   91.9452   15.2082 N.am    1  UNL1       -0.2567
      8 C          66.4469   93.1888   16.0333 C.3     1  UNL1        0.1168
      9 C          65.2093   90.9611   15.5274 C.2     1  UNL1        0.3046
     10 O          64.2746   91.2205   16.6716 O.2     1  UNL1       -0.2526
     11 N          65.0578   89.7176   14.7023 N.am    1  UNL1       -0.2824
     12 H          65.6713   89.5473   13.9513 H       1  UNL1        0.1514
     13 C          67.2300   91.6858   14.0641 C.3     1  UNL1        0.1413
     14 C          67.3935   93.2226   10.5036 C.ar    1  UNL1        0.0875
     15 N          67.8769   92.2424   11.5309 N.ar    1  UNL1       -0.2453
     16 C          67.0782   92.4517   12.7832 C.ar    1  UNL1        0.0858
     17 C          66.1011   93.5612   12.5298 C.ar    1  UNL1        0.0530
     18 S          66.2959   94.0377   11.1209 S.2     1  UNL1       -0.0705
     19 C          68.7949   92.2967    8.5214 C.3     1  UNL1        0.0069
     20 C          67.9158   93.3631    9.1044 C.3     1  UNL1        0.0465
     21 C          67.5590   94.5700    8.2883 C.3     1  UNL1        0.0069
     22 C          63.1563   88.8952   16.2700 C.3     1  UNL1        0.0270
     23 C          63.2777   87.8937   17.3801 C.3     1  UNL1        0.0022
     24 C          62.2194   90.0583   16.4084 C.3     1  UNL1        0.0022
     25 C          62.1064   85.1774   12.6861 C.3     1  UNL1        0.0861
     26 C          62.4580   85.2377   11.2292 C.2     1  UNL1        0.1704
     27 O          62.9916   84.0196   10.5353 O.2     1  UNL1       -0.2943
     28 C          62.2760   86.5162   10.4660 C.3     1  UNL1        0.1365
     29 N          61.5611   87.6727   11.0997 N.am    1  UNL1       -0.2653
     30 C          60.1631   88.0135   10.6759 C.2     1  UNL1        0.4023
     31 O          59.4801   87.1979    9.6185 O.2     1  UNL1       -0.2264
     32 H          62.0095   88.2080   11.7937 H       1  UNL1        0.1531
     33 O          59.4483   89.1699   11.3096 O.3     1  UNL1       -0.4291
     34 C          60.0060   90.5566   11.1836 C.3     1  UNL1        0.2447
     35 C          61.4865   90.7805   11.2730 C.ar    1  UNL1        0.0714
     36 C          62.3015   90.7962   12.5322 C.ar    1  UNL1        0.1053
     37 N          63.7306   91.0534   12.1563 N.ar    1  UNL1       -0.2350
     38 C          63.7990   91.1968   10.6647 C.ar    1  UNL1        0.1343
     39 S          62.4121   91.0281   10.1188 S.2     1  UNL1       -0.0652
     40 C          62.8089   86.6382    9.0692 C.3     1  UNL1        0.0536
     41 C          62.2328   85.7951    7.9704 C.ar    1  UNL1       -0.0201
     42 C          63.1378   84.9653    7.1088 C.ar    1  UNL1       -0.0042
     43 C          62.5617   84.1222    6.0100 C.ar    1  UNL1       -0.0003
     44 C          61.0806   84.1090    5.7728 C.ar    1  UNL1       -0.0000
     45 C          60.1756   84.9389    6.6344 C.ar    1  UNL1       -0.0003
     46 C          60.7517   85.7819    7.7331 C.ar    1  UNL1       -0.0042
     47 C          64.0066   83.8124   13.8158 C.3     1  UNL1        0.0463
     48 C          63.3557   82.4772   13.6068 C.ar    1  UNL1       -0.0205
     49 C          62.2057   82.0594   14.4746 C.ar    1  UNL1       -0.0042
     50 C          61.5549   80.7242   14.2656 C.ar    1  UNL1       -0.0003
     51 C          62.0540   79.8068   13.1888 C.ar    1  UNL1       -0.0000
     52 C          63.2039   80.2247   12.3211 C.ar    1  UNL1       -0.0003
     53 C          63.8548   81.5598   12.5300 C.ar    1  UNL1       -0.0042
@<TRIPOS>BOND
     1    19    20    1
     2    20    21    1
     3    20    14    1
     4    14    15   ar
     5    15    16   ar
     6    16    13    1
     7    13     7    1
     8     7     8    1
     9     7     9   am
    10     9    10    2
    11     9    11   am
    12     6    11    1
    13     6     2    1
    14     2     3    2
    15     2     4   am
    16     4     1    1
    17     1    25    1
    18    25    26    1
    19    26    27    2
    20    26    28    1
    21    28    40    1
    22    40    41    1
    23    41    42   ar
    24    42    43   ar
    25    43    44   ar
    26    44    45   ar
    27    45    46   ar
    28    28    29    1
    29    29    30   am
    30    30    31    2
    31    30    33    1
    32    33    34    1
    33    34    35    1
    34    35    36   ar
    35    36    37   ar
    36    37    38   ar
    37    38    39   ar
    38     1    47    1
    39    47    48    1
    40    48    49   ar
    41    49    50   ar
    42    50    51   ar
    43    51    52   ar
    44    52    53   ar
    45     6    22    1
    46    22    23    1
    47    22    24    1
    48    16    17   ar
    49    17    18   ar
    50    18    14   ar
    51    46    41   ar
    52    39    35   ar
    53    53    48   ar
    54    11    12    1
    55     4     5    1
    56    29    32    1
@<TRIPOS>MOLECULE
*****
 53 56 0 0 0
SMALL
GASTEIGER

@<TRIPOS>ATOM
      1 C          62.5349   86.8705   11.5307 C.3     1  UNL1        0.0833
      2 C          61.3629   89.0204   10.6618 C.2     1  UNL1        0.2404
      3 O          62.6958   89.5929   10.2805 O.2     1  UNL1       -0.2733
      4 N          61.2824   87.6592   11.2869 N.am    1  UNL1       -0.3039
      5 H          60.4075   87.2834   11.5372 H       1  UNL1        0.1494
      6 C          60.1104   89.8090   10.4181 C.3     1  UNL1        0.1496
      7 N          59.1792   89.3632    6.5861 N.am    1  UNL1       -0.2567
      8 C          59.0925   88.2728    5.5597 C.3     1  UNL1        0.1168
      9 C          59.6014   89.0409    7.9888 C.2     1  UNL1        0.3046
     10 O          59.9370   87.6282    8.3653 O.2     1  UNL1       -0.2526
     11 N          59.6882   90.1313    9.0152 N.am    1  UNL1       -0.2824
     12 H          59.4680   91.0586    8.7682 H       1  UNL1        0.1514
     13 C          58.8437   90.7759    6.2097 C.3     1  UNL1        0.1413
     14 C          61.2539   92.0766    3.4592 C.ar    1  UNL1        0.0875
     15 N          60.9780   91.2285    4.6653 N.ar    1  UNL1       -0.2453
     16 C          59.5443   91.4314    5.0566 C.ar    1  UNL1        0.0858
     17 C          58.9340   92.4050    4.0923 C.ar    1  UNL1        0.0530
     18 S          59.9905   92.8037    3.1051 S.2     1  UNL1       -0.0705
     19 C          62.8257   93.3403    1.8213 C.3     1  UNL1        0.0069
     20 C          62.5631   92.1796    2.7345 C.3     1  UNL1        0.0465
     21 C          63.6099   91.1219    2.9229 C.3     1  UNL1        0.0069
     22 C          59.2802   90.2752   11.5771 C.3     1  UNL1        0.0270
     23 C          58.9758   89.3370   12.7071 C.3     1  UNL1        0.0022
     24 C          58.7545   91.6797   11.6060 C.3     1  UNL1        0.0022
     25 C          63.3268   87.0896   12.7856 C.3     1  UNL1        0.0861
     26 C          63.3059   88.4285   13.4615 C.2     1  UNL1        0.1704
     27 O          62.3746   89.4994   12.9757 O.2     1  UNL1       -0.2943
     28 C          64.2162   88.6965   14.6232 C.3     1  UNL1        0.1365
     29 N          65.0948   89.9122   14.6226 N.am    1  UNL1       -0.2653
     30 C          64.6358   91.1697   15.2995 C.2     1  UNL1        0.4023
     31 O          63.2981   91.2114   15.9769 O.2     1  UNL1       -0.2264
     32 H          65.9728   89.8848   14.1780 H       1  UNL1        0.1531
     33 O          65.5144   92.3854   15.2989 O.3     1  UNL1       -0.4291
     34 C          66.5094   92.5911   14.1955 C.3     1  UNL1        0.2447
     35 C          66.0375   92.9459   12.8165 C.ar    1  UNL1        0.0714
     36 C          65.1553   92.1042   11.9428 C.ar    1  UNL1        0.1053
     37 N          64.9375   92.8427   10.6555 N.ar    1  UNL1       -0.2350
     38 C          65.6851   94.1408   10.7336 C.ar    1  UNL1        0.1343
     39 S          66.3649   94.2045   12.0691 S.2     1  UNL1       -0.0652
     40 C          64.2478   87.7488   15.7855 C.3     1  UNL1        0.0536
     41 C          64.1608   86.2699   15.5500 C.ar    1  UNL1       -0.0201
     42 C          65.2080   85.5785   14.7282 C.ar    1  UNL1       -0.0042
     43 C          65.1209   84.0997   14.4927 C.ar    1  UNL1       -0.0003
     44 C          63.9868   83.3123   15.0790 C.ar    1  UNL1       -0.0000
     45 C          62.9396   84.0038   15.9008 C.ar    1  UNL1       -0.0003
     46 C          63.0266   85.4826   16.1362 C.ar    1  UNL1       -0.0042
     47 C          62.9954   85.8628   10.5194 C.3     1  UNL1        0.0463
     48 C          63.0535   84.4086   10.8826 C.ar    1  UNL1       -0.0205
     49 C          62.2759   83.8977   12.0592 C.ar    1  UNL1       -0.0042
     50 C          62.3341   82.4435   12.4223 C.ar    1  UNL1       -0.0003
     51 C          63.1698   81.5002   11.6088 C.ar    1  UNL1       -0.0000
     52 C          63.9474   82.0111   10.4323 C.ar    1  UNL1       -0.0003
     53 C          63.8892   83.4653   10.0691 C.ar    1  UNL1       -0.0042
@<TRIPOS>BOND
     1    19    20    1
     2    20    21    1
     3    20    14    1
     4    14    15   ar
     5    15    16   ar
     6    16    13    1
     7    13     7    1
     8     7     8    1
     9     7     9   am
    10     9    10    2
    11     9    11   am
    12     6    11    1
    13     6     2    1
    14     2     3    2
    15     2     4   am
    16     4     1    1
    17     1    25    1
    18    25    26    1
    19    26    27    2
    20    26    28    1
    21    28    40    1
    22    40    41    1
    23    41    42   ar
    24    42    43   ar
    25    43    44   ar
    26    44    45   ar
    27    45    46   ar
    28    28    29    1
    29    29    30   am
    30    30    31    2
    31    30    33    1
    32    33    34    1
    33    34    35    1
    34    35    36   ar
    35    36    37   ar
    36    37    38   ar
    37    38    39   ar
    38     1    47    1
    39    47    48    1
    40    48    49   ar
    41    49    50   ar
    42    50    51   ar
    43    51    52   ar
    44    52    53   ar
    45     6    22    1
    46    22    23    1
    47    22    24    1
    48    16    17   ar
    49    17    18   ar
    50    18    14   ar
    51    46    41   ar
    52    39    35   ar
    53    53    48   ar
    54    11    12    1
    55     4     5    1
    56    29    32    1
