@<TRIPOS>MOLECULE
*****
 31 34 0 0 0
SMALL
GASTEIGER

@<TRIPOS>ATOM
      1 N          61.1514   90.0939   11.0097 N.pl3   1  UNL1       -0.3111
      2 H          60.3203   90.5791   11.2170 H       1  UNL1        0.1523
      3 N          63.3852   89.9625   15.1335 N.ar    1  UNL1       -0.2385
      4 C          64.5599   90.7501   14.6338 C.ar    1  UNL1        0.1163
      5 C          64.3155   91.0826   13.1917 C.ar    1  UNL1        0.1205
      6 N          65.1289   91.8402   12.1846 N.ar    1  UNL1       -0.2406
      7 C          64.6165   92.0157   10.7858 C.ar    1  UNL1        0.1003
      8 C          63.2906   91.4336   10.3942 C.ar    1  UNL1        0.0369
      9 C          62.4773   90.6760   11.4013 C.ar    1  UNL1        0.0710
     10 C          62.9897   90.5005   12.8001 C.ar    1  UNL1        0.1333
     11 N          62.4148   89.8083   14.0002 N.ar    1  UNL1       -0.1659
     12 C          63.2114   89.4238   16.5226 C.3     1  UNL1        0.2116
     13 N          63.5421   87.0026   15.6403 N.am    1  UNL1       -0.3272
     14 C          63.1887   87.9421   16.7550 C.2     1  UNL1        0.2443
     15 O          62.8125   87.3999   18.1021 O.2     1  UNL1       -0.2732
     16 H          63.5272   86.0301   15.7929 H       1  UNL1        0.1450
     17 H          63.7890   87.3585   14.7562 H       1  UNL1        0.1450
     18 C          61.0920   88.7726   10.3023 C.ar    1  UNL1        0.0514
     19 C          60.2221   88.6087    9.0913 C.ar    1  UNL1        0.0353
     20 C          60.1627   87.2873    8.3839 C.ar    1  UNL1        0.1001
     21 N          60.9731   86.1299    8.8874 N.ar    1  UNL1       -0.2437
     22 C          61.8429   86.2938   10.0983 C.ar    1  UNL1        0.0847
     23 C          61.9024   87.6152   10.8058 C.ar    1  UNL1        0.0338
     24 C          62.6533   85.1363   10.6019 C.ar    1  UNL1        0.0460
     25 C          62.7284   84.8572   12.0737 C.ar    1  UNL1        0.0151
     26 C          63.5388   83.6998   12.5772 C.ar    1  UNL1        0.0579
     27 CL         63.6139   83.4207   14.0492 Cl      1  UNL1       -0.0822
     28 C          64.2742   82.8214   11.6089 C.ar    1  UNL1        0.0137
     29 C          64.1991   83.1005   10.1370 C.ar    1  UNL1        0.0306
     30 C          63.3887   84.2579    9.6334 C.ar    1  UNL1        0.1416
     31 F          63.3136   84.5370    8.1616 F       1  UNL1       -0.2041
@<TRIPOS>BOND
     1    13    14   am
     2    14    15    2
     3    14    12    1
     4    12     3    1
     5     3     4   ar
     6     4     5   ar
     7     5     6   ar
     8     6     7   ar
     9     7     8   ar
    10     8     9   ar
    11     9     1    1
    12     1    18    1
    13    18    19   ar
    14    19    20   ar
    15    20    21   ar
    16    21    22   ar
    17    22    24    1
    18    24    25   ar
    19    25    26   ar
    20    26    27    1
    21    26    28   ar
    22    28    29   ar
    23    29    30   ar
    24    30    31    1
    25    22    23   ar
    26     9    10   ar
    27    10    11   ar
    28    11     3   ar
    29    10     5   ar
    30    23    18   ar
    31    30    24   ar
    32    13    16    1
    33    13    17    1
    34     1     2    1
@<TRIPOS>MOLECULE
*****
 31 34 0 0 0
SMALL
GASTEIGER

@<TRIPOS>ATOM
      1 N          62.2657   90.6717   10.2169 N.pl3   1  UNL1       -0.3111
      2 H          62.1577   91.4297    9.5981 H       1  UNL1        0.1523
      3 N          65.9695   93.3947   11.1548 N.ar    1  UNL1       -0.2385
      4 C          66.0476   92.9634   12.5893 C.ar    1  UNL1        0.1163
      5 C          64.9480   91.9735   12.8362 C.ar    1  UNL1        0.1205
      6 N          64.5388   91.2131   14.0627 N.ar    1  UNL1       -0.2406
      7 C          63.3719   90.2723   14.0073 C.ar    1  UNL1        0.1003
      8 C          62.6142   90.0918   12.7253 C.ar    1  UNL1        0.0369
      9 C          63.0234   90.8522   11.4988 C.ar    1  UNL1        0.0710
     10 C          64.1903   91.7930   11.5543 C.ar    1  UNL1        0.1333
     11 N          64.8216   92.6714   10.5151 N.ar    1  UNL1       -0.1659
     12 C          66.8795   94.3769   10.4786 C.3     1  UNL1        0.2116
     13 N          68.9959   93.0366    9.7900 N.am    1  UNL1       -0.3272
     14 C          67.8336   93.9095    9.4198 C.2     1  UNL1        0.2443
     15 O          67.6253   94.3150    7.9907 O.2     1  UNL1       -0.2732
     16 H          69.6221   92.7298    9.0950 H       1  UNL1        0.1450
     17 H          69.1326   92.7705   10.7279 H       1  UNL1        0.1450
     18 C          61.6726   89.3363    9.8779 C.ar    1  UNL1        0.0514
     19 C          60.3947   89.2599    9.0961 C.ar    1  UNL1        0.0353
     20 C          59.8016   87.9245    8.7570 C.ar    1  UNL1        0.1001
     21 N          60.4864   86.6655    9.1997 N.ar    1  UNL1       -0.2437
     22 C          61.7642   86.7419    9.9815 C.ar    1  UNL1        0.0847
     23 C          62.3574   88.0773   10.3206 C.ar    1  UNL1        0.0338
     24 C          62.4490   85.4829   10.4242 C.ar    1  UNL1        0.0460
     25 C          62.3682   85.0495   11.8579 C.ar    1  UNL1        0.0151
     26 C          63.0530   83.7905   12.3006 C.ar    1  UNL1        0.0579
     27 CL         62.9722   83.3571   13.7344 Cl      1  UNL1       -0.0822
     28 C          63.8186   82.9649   11.3095 C.ar    1  UNL1        0.0137
     29 C          63.8994   83.3983    9.8757 C.ar    1  UNL1        0.0306
     30 C          63.2146   84.6573    9.4330 C.ar    1  UNL1        0.1416
     31 F          63.2954   85.0907    7.9993 F       1  UNL1       -0.2041
@<TRIPOS>BOND
     1    13    14   am
     2    14    15    2
     3    14    12    1
     4    12     3    1
     5     3     4   ar
     6     4     5   ar
     7     5     6   ar
     8     6     7   ar
     9     7     8   ar
    10     8     9   ar
    11     9     1    1
    12     1    18    1
    13    18    19   ar
    14    19    20   ar
    15    20    21   ar
    16    21    22   ar
    17    22    24    1
    18    24    25   ar
    19    25    26   ar
    20    26    27    1
    21    26    28   ar
    22    28    29   ar
    23    29    30   ar
    24    30    31    1
    25    22    23   ar
    26     9    10   ar
    27    10    11   ar
    28    11     3   ar
    29    10     5   ar
    30    23    18   ar
    31    30    24   ar
    32    13    16    1
    33    13    17    1
    34     1     2    1
@<TRIPOS>MOLECULE
*****
 31 34 0 0 0
SMALL
GASTEIGER

@<TRIPOS>ATOM
      1 N          62.7734   90.3055   13.1363 N.pl3   1  UNL1       -0.3111
      2 H          62.1608   90.4277   13.8973 H       1  UNL1        0.1523
      3 N          63.1306   85.7101   12.2599 N.ar    1  UNL1       -0.2385
      4 C          62.4703   85.8148   10.9171 C.ar    1  UNL1        0.1163
      5 C          62.1162   87.2539   10.6856 C.ar    1  UNL1        0.1205
      6 N          61.4488   87.9511    9.5373 N.ar    1  UNL1       -0.2406
      7 C          61.2230   89.4331    9.5888 C.ar    1  UNL1        0.1003
      8 C          61.6645   90.2179   10.7884 C.ar    1  UNL1        0.0369
      9 C          62.3319   89.5207   11.9367 C.ar    1  UNL1        0.0710
     10 C          62.5577   88.0387   11.8852 C.ar    1  UNL1        0.1333
     11 N          63.1847   87.0846   12.8582 N.ar    1  UNL1       -0.1659
     12 C          63.6463   84.4520   12.8932 C.3     1  UNL1        0.2116
     13 N          62.0855   84.8377   14.9340 N.am    1  UNL1       -0.3272
     14 C          63.1005   83.9993   14.2149 C.2     1  UNL1        0.2443
     15 O          63.5696   82.7083   14.8177 O.2     1  UNL1       -0.2732
     16 H          61.7273   84.5406   15.8015 H       1  UNL1        0.1450
     17 H          61.7776   85.6850   14.5384 H       1  UNL1        0.1450
     18 C          64.1482   90.9039   13.1766 C.ar    1  UNL1        0.0514
     19 C          65.0548   90.6230   14.3382 C.ar    1  UNL1        0.0353
     20 C          66.4296   91.2215   14.3785 C.ar    1  UNL1        0.1001
     21 N          66.8979   92.1009   13.2572 N.ar    1  UNL1       -0.2437
     22 C          65.9914   92.3818   12.0956 C.ar    1  UNL1        0.0847
     23 C          64.6165   91.7833   12.0553 C.ar    1  UNL1        0.0338
     24 C          66.4597   93.2613   10.9743 C.ar    1  UNL1        0.0460
     25 C          65.8513   94.6186   10.7815 C.ar    1  UNL1        0.0151
     26 C          66.3196   95.4980    9.6602 C.ar    1  UNL1        0.0579
     27 CL         65.7111   96.8555    9.4674 Cl      1  UNL1       -0.0822
     28 C          67.3964   95.0201    8.7318 C.ar    1  UNL1        0.0137
     29 C          68.0049   93.6626    8.9246 C.ar    1  UNL1        0.0306
     30 C          67.5366   92.7832   10.0459 C.ar    1  UNL1        0.1416
     31 F          68.1450   91.4258   10.2387 F       1  UNL1       -0.2041
@<TRIPOS>BOND
     1    13    14   am
     2    14    15    2
     3    14    12    1
     4    12     3    1
     5     3     4   ar
     6     4     5   ar
     7     5     6   ar
     8     6     7   ar
     9     7     8   ar
    10     8     9   ar
    11     9     1    1
    12     1    18    1
    13    18    19   ar
    14    19    20   ar
    15    20    21   ar
    16    21    22   ar
    17    22    24    1
    18    24    25   ar
    19    25    26   ar
    20    26    27    1
    21    26    28   ar
    22    28    29   ar
    23    29    30   ar
    24    30    31    1
    25    22    23   ar
    26     9    10   ar
    27    10    11   ar
    28    11     3   ar
    29    10     5   ar
    30    23    18   ar
    31    30    24   ar
    32    13    16    1
    33    13    17    1
    34     1     2    1
@<TRIPOS>MOLECULE
*****
 31 34 0 0 0
SMALL
GASTEIGER

@<TRIPOS>ATOM
      1 N          64.6049   88.1087   14.5223 N.pl3   1  UNL1       -0.3111
      2 H          65.5804   88.1860   14.6307 H       1  UNL1        0.1523
      3 N          63.5446   83.5383   14.5042 N.ar    1  UNL1       -0.2385
      4 C          62.7624   83.6141   15.7819 C.ar    1  UNL1        0.1163
      5 C          62.7950   85.0349   16.2618 C.ar    1  UNL1        0.1205
      6 N          62.1977   85.7017   17.4654 N.ar    1  UNL1       -0.2406
      7 C          62.4029   87.1708   17.6879 C.ar    1  UNL1        0.1003
      8 C          63.2053   87.9731   16.7069 C.ar    1  UNL1        0.0369
      9 C          63.8025   87.3063   15.5033 C.ar    1  UNL1        0.0710
     10 C          63.5974   85.8372   15.2808 C.ar    1  UNL1        0.1333
     11 N          64.0607   84.9123   14.1945 N.ar    1  UNL1       -0.1659
     12 C          63.7710   82.3051   13.6808 C.3     1  UNL1        0.2116
     13 N          64.8540   83.3292   11.5529 N.am    1  UNL1       -0.3272
     14 C          63.8560   82.4061   12.1867 C.2     1  UNL1        0.2443
     15 O          62.9428   81.5839   11.3262 O.2     1  UNL1       -0.2732
     16 H          64.9098   83.3954   10.5722 H       1  UNL1        0.1450
     17 H          65.4534   83.8688   12.1176 H       1  UNL1        0.1450
     18 C          63.9211   88.7931   13.3760 C.ar    1  UNL1        0.0514
     19 C          63.9579   90.2887   13.2656 C.ar    1  UNL1        0.0353
     20 C          63.2741   90.9731   12.1194 C.ar    1  UNL1        0.1001
     21 N          62.5535   90.1621   11.0835 N.ar    1  UNL1       -0.2437
     22 C          62.5167   88.6667   11.1939 C.ar    1  UNL1        0.0847
     23 C          63.2006   87.9822   12.3401 C.ar    1  UNL1        0.0338
     24 C          61.7962   87.8557   10.1580 C.ar    1  UNL1        0.0460
     25 C          62.5338   86.8064    9.3803 C.ar    1  UNL1        0.0151
     26 C          61.8132   85.9954    8.3445 C.ar    1  UNL1        0.0579
     27 CL         62.5509   84.9460    7.5668 Cl      1  UNL1       -0.0822
     28 C          60.3550   86.2337    8.0862 C.ar    1  UNL1        0.0137
     29 C          59.6173   87.2831    8.8638 C.ar    1  UNL1        0.0306
     30 C          60.3379   88.0941    9.8997 C.ar    1  UNL1        0.1416
     31 F          59.6002   89.1434   10.6773 F       1  UNL1       -0.2041
@<TRIPOS>BOND
     1    13    14   am
     2    14    15    2
     3    14    12    1
     4    12     3    1
     5     3     4   ar
     6     4     5   ar
     7     5     6   ar
     8     6     7   ar
     9     7     8   ar
    10     8     9   ar
    11     9     1    1
    12     1    18    1
    13    18    19   ar
    14    19    20   ar
    15    20    21   ar
    16    21    22   ar
    17    22    24    1
    18    24    25   ar
    19    25    26   ar
    20    26    27    1
    21    26    28   ar
    22    28    29   ar
    23    29    30   ar
    24    30    31    1
    25    22    23   ar
    26     9    10   ar
    27    10    11   ar
    28    11     3   ar
    29    10     5   ar
    30    23    18   ar
    31    30    24   ar
    32    13    16    1
    33    13    17    1
    34     1     2    1
@<TRIPOS>MOLECULE
*****
 31 34 0 0 0
SMALL
GASTEIGER

@<TRIPOS>ATOM
      1 N          63.2174   90.3123   13.7861 N.pl3   1  UNL1       -0.3111
      2 H          62.7074   90.1286   14.6080 H       1  UNL1        0.1523
      3 N          63.1593   85.8235   12.4223 N.ar    1  UNL1       -0.2385
      4 C          62.6074   86.1409   11.0641 C.ar    1  UNL1        0.1163
      5 C          62.4202   87.6265   10.9753 C.ar    1  UNL1        0.1205
      6 N          61.9089   88.5098    9.8761 N.ar    1  UNL1       -0.2406
      7 C          61.8338   89.9939   10.0802 C.ar    1  UNL1        0.1003
      8 C          62.2700   90.5947   11.3836 C.ar    1  UNL1        0.0369
      9 C          62.7812   89.7114   12.4828 C.ar    1  UNL1        0.0710
     10 C          62.8563   88.2273   12.2787 C.ar    1  UNL1        0.1333
     11 N          63.3131   87.1130   13.1729 N.ar    1  UNL1       -0.1659
     12 C          63.4978   84.4566   12.9391 C.3     1  UNL1        0.2116
     13 N          62.0090   84.8101   15.0387 N.am    1  UNL1       -0.3272
     14 C          63.0967   84.0597   14.3288 C.2     1  UNL1        0.2443
     15 O          63.7832   82.9123   15.0087 O.2     1  UNL1       -0.2732
     16 H          61.7457   84.5495   15.9508 H       1  UNL1        0.1450
     17 H          61.5584   85.5631   14.5924 H       1  UNL1        0.1450
     18 C          64.4306   91.1929   13.8374 C.ar    1  UNL1        0.0514
     19 C          65.0770   91.5033   15.1549 C.ar    1  UNL1        0.0353
     20 C          66.2902   92.3839   15.2061 C.ar    1  UNL1        0.1001
     21 N          66.8571   92.9541   13.9398 N.ar    1  UNL1       -0.2437
     22 C          66.2107   92.6437   12.6223 C.ar    1  UNL1        0.0847
     23 C          64.9975   91.7631   12.5711 C.ar    1  UNL1        0.0338
     24 C          66.7776   93.2139   11.3560 C.ar    1  UNL1        0.0460
     25 C          67.5684   92.3401   10.4281 C.ar    1  UNL1        0.0151
     26 C          68.1353   92.9103    9.1618 C.ar    1  UNL1        0.0579
     27 CL         68.9261   92.0364    8.2339 Cl      1  UNL1       -0.0822
     28 C          67.9114   94.3543    8.8234 C.ar    1  UNL1        0.0137
     29 C          67.1206   95.2282    9.7513 C.ar    1  UNL1        0.0306
     30 C          66.5537   94.6580   11.0176 C.ar    1  UNL1        0.1416
     31 F          65.7629   95.5319   11.9455 F       1  UNL1       -0.2041
@<TRIPOS>BOND
     1    13    14   am
     2    14    15    2
     3    14    12    1
     4    12     3    1
     5     3     4   ar
     6     4     5   ar
     7     5     6   ar
     8     6     7   ar
     9     7     8   ar
    10     8     9   ar
    11     9     1    1
    12     1    18    1
    13    18    19   ar
    14    19    20   ar
    15    20    21   ar
    16    21    22   ar
    17    22    24    1
    18    24    25   ar
    19    25    26   ar
    20    26    27    1
    21    26    28   ar
    22    28    29   ar
    23    29    30   ar
    24    30    31    1
    25    22    23   ar
    26     9    10   ar
    27    10    11   ar
    28    11     3   ar
    29    10     5   ar
    30    23    18   ar
    31    30    24   ar
    32    13    16    1
    33    13    17    1
    34     1     2    1
@<TRIPOS>MOLECULE
*****
 31 34 0 0 0
SMALL
GASTEIGER

@<TRIPOS>ATOM
      1 N          61.4896   88.7368   10.9698 N.pl3   1  UNL1       -0.3111
      2 H          60.5240   88.9188   11.0312 H       1  UNL1        0.1523
      3 N          63.2844   89.8734   15.1530 N.ar    1  UNL1       -0.2385
      4 C          64.1293   90.9823   14.5992 C.ar    1  UNL1        0.1163
      5 C          63.8961   91.0477   13.1189 C.ar    1  UNL1        0.1205
      6 N          64.4566   91.9421   12.0531 N.ar    1  UNL1       -0.2406
      7 C          64.0280   91.7680   10.6262 C.ar    1  UNL1        0.1003
      8 C          63.0391   90.6996   10.2651 C.ar    1  UNL1        0.0369
      9 C          62.4786   89.8052   11.3309 C.ar    1  UNL1        0.0710
     10 C          62.9071   89.9793   12.7578 C.ar    1  UNL1        0.1333
     11 N          62.5291   89.2536   14.0149 N.ar    1  UNL1       -0.1659
     12 C          63.2083   89.4575   16.5922 C.3     1  UNL1        0.2116
     13 N          62.7085   87.5817   18.3189 N.am    1  UNL1       -0.3272
     14 C          63.1569   88.0019   16.9505 C.2     1  UNL1        0.2443
     15 O          63.5538   86.9664   15.9404 O.2     1  UNL1       -0.2732
     16 H          62.6748   86.6263   18.5540 H       1  UNL1        0.1450
     17 H          62.4480   88.2613   18.9818 H       1  UNL1        0.1450
     18 C          61.9718   87.3912   10.5150 C.ar    1  UNL1        0.0514
     19 C          62.1572   87.1159    9.0522 C.ar    1  UNL1        0.0353
     20 C          62.6393   85.7703    8.5974 C.ar    1  UNL1        0.1001
     21 N          62.9362   84.7000    9.6055 N.ar    1  UNL1       -0.2437
     22 C          62.7508   84.9752   11.0683 C.ar    1  UNL1        0.0847
     23 C          62.2686   86.3209   11.5231 C.ar    1  UNL1        0.0338
     24 C          63.0477   83.9048   12.0764 C.ar    1  UNL1        0.0460
     25 C          62.6142   82.4920   11.8199 C.ar    1  UNL1        0.0151
     26 C          62.9110   81.4216   12.8280 C.ar    1  UNL1        0.0579
     27 CL         62.4774   80.0087   12.5714 Cl      1  UNL1       -0.0822
     28 C          63.6414   81.7641   14.0925 C.ar    1  UNL1        0.0137
     29 C          64.0749   83.1770   14.3491 C.ar    1  UNL1        0.0306
     30 C          63.7781   84.2474   13.3410 C.ar    1  UNL1        0.1416
     31 F          64.2116   85.6603   13.5975 F       1  UNL1       -0.2041
@<TRIPOS>BOND
     1    13    14   am
     2    14    15    2
     3    14    12    1
     4    12     3    1
     5     3     4   ar
     6     4     5   ar
     7     5     6   ar
     8     6     7   ar
     9     7     8   ar
    10     8     9   ar
    11     9     1    1
    12     1    18    1
    13    18    19   ar
    14    19    20   ar
    15    20    21   ar
    16    21    22   ar
    17    22    24    1
    18    24    25   ar
    19    25    26   ar
    20    26    27    1
    21    26    28   ar
    22    28    29   ar
    23    29    30   ar
    24    30    31    1
    25    22    23   ar
    26     9    10   ar
    27    10    11   ar
    28    11     3   ar
    29    10     5   ar
    30    23    18   ar
    31    30    24   ar
    32    13    16    1
    33    13    17    1
    34     1     2    1
@<TRIPOS>MOLECULE
*****
 31 34 0 0 0
SMALL
GASTEIGER

@<TRIPOS>ATOM
      1 N          62.4593   90.2670   11.5241 N.pl3   1  UNL1       -0.3111
      2 H          61.8723   90.9489   11.1246 H       1  UNL1        0.1523
      3 N          66.2111   93.0648   11.1934 N.ar    1  UNL1       -0.2385
      4 C          66.5917   92.8890   12.6336 C.ar    1  UNL1        0.1163
      5 C          65.5899   91.9712   13.2692 C.ar    1  UNL1        0.1205
      6 N          65.4589   91.4414   14.6663 N.ar    1  UNL1       -0.2406
      7 C          64.3280   90.5201   15.0161 C.ar    1  UNL1        0.1003
      8 C          63.3282   90.1286   13.9687 C.ar    1  UNL1        0.0369
      9 C          63.4592   90.6584   12.5715 C.ar    1  UNL1        0.0710
     10 C          64.5900   91.5797   12.2218 C.ar    1  UNL1        0.1333
     11 N          64.9740   92.2556   10.9389 N.ar    1  UNL1       -0.1659
     12 C          66.9396   93.9026   10.1848 C.3     1  UNL1        0.2116
     13 N          65.0489   95.6839   10.1423 N.am    1  UNL1       -0.3272
     14 C          66.4782   95.3006    9.8974 C.2     1  UNL1        0.2443
     15 O          67.4463   96.3154    9.3651 O.2     1  UNL1       -0.2732
     16 H          64.7461   96.6015    9.9536 H       1  UNL1        0.1450
     17 H          64.4135   95.0179   10.4916 H       1  UNL1        0.1450
     18 C          62.3538   88.8365   11.0854 C.ar    1  UNL1        0.0514
     19 C          61.8492   88.5086    9.7114 C.ar    1  UNL1        0.0353
     20 C          61.7437   87.0781    9.2727 C.ar    1  UNL1        0.1001
     21 N          62.1428   85.9754   10.2080 N.ar    1  UNL1       -0.2437
     22 C          62.6474   86.3032   11.5819 C.ar    1  UNL1        0.0847
     23 C          62.7530   87.7338   12.0207 C.ar    1  UNL1        0.0338
     24 C          63.0465   85.2005   12.5172 C.ar    1  UNL1        0.0460
     25 C          62.6658   83.7824   12.2106 C.ar    1  UNL1        0.0151
     26 C          63.0650   82.6797   13.1459 C.ar    1  UNL1        0.0579
     27 CL         62.6842   81.2616   12.8392 Cl      1  UNL1       -0.0822
     28 C          63.8448   82.9951   14.3878 C.ar    1  UNL1        0.0137
     29 C          64.2255   84.4132   14.6944 C.ar    1  UNL1        0.0306
     30 C          63.8264   85.5159   13.7592 C.ar    1  UNL1        0.1416
     31 F          64.2071   86.9340   14.0658 F       1  UNL1       -0.2041
@<TRIPOS>BOND
     1    13    14   am
     2    14    15    2
     3    14    12    1
     4    12     3    1
     5     3     4   ar
     6     4     5   ar
     7     5     6   ar
     8     6     7   ar
     9     7     8   ar
    10     8     9   ar
    11     9     1    1
    12     1    18    1
    13    18    19   ar
    14    19    20   ar
    15    20    21   ar
    16    21    22   ar
    17    22    24    1
    18    24    25   ar
    19    25    26   ar
    20    26    27    1
    21    26    28   ar
    22    28    29   ar
    23    29    30   ar
    24    30    31    1
    25    22    23   ar
    26     9    10   ar
    27    10    11   ar
    28    11     3   ar
    29    10     5   ar
    30    23    18   ar
    31    30    24   ar
    32    13    16    1
    33    13    17    1
    34     1     2    1
@<TRIPOS>MOLECULE
*****
 31 34 0 0 0
SMALL
GASTEIGER

@<TRIPOS>ATOM
      1 N          63.4979   90.2508   13.4623 N.pl3   1  UNL1       -0.3111
      2 H          62.6205   90.6972   13.4762 H       1  UNL1        0.1523
      3 N          61.4242   87.0528   10.7264 N.ar    1  UNL1       -0.2385
      4 C          62.0355   85.8914   11.4526 C.ar    1  UNL1        0.1163
      5 C          62.8944   86.4345   12.5559 C.ar    1  UNL1        0.1205
      6 N          63.7393   85.7593   13.5951 N.ar    1  UNL1       -0.2406
      7 C          64.5038   86.5812   14.5900 C.ar    1  UNL1        0.1003
      8 C          64.4233   88.0784   14.5458 C.ar    1  UNL1        0.0369
      9 C          63.5784   88.7536   13.5066 C.ar    1  UNL1        0.0710
     10 C          62.8139   87.9317   12.5116 C.ar    1  UNL1        0.1333
     11 N          61.9053   88.3138   11.3810 N.ar    1  UNL1       -0.1659
     12 C          60.4949   86.9681    9.5520 C.3     1  UNL1        0.2116
     13 N          59.8141   85.7602    7.3549 N.am    1  UNL1       -0.3272
     14 C          60.8602   86.1259    8.3658 C.2     1  UNL1        0.2443
     15 O          62.2717   85.6493    8.1904 O.2     1  UNL1       -0.2732
     16 H          60.0539   85.2074    6.5763 H       1  UNL1        0.1450
     17 H          58.8878   86.0730    7.4699 H       1  UNL1        0.1450
     18 C          64.7541   91.0678   13.3967 C.ar    1  UNL1        0.0514
     19 C          65.7036   91.0781   14.5580 C.ar    1  UNL1        0.0353
     20 C          66.9598   91.8951   14.4924 C.ar    1  UNL1        0.1001
     21 N          67.2667   92.7019   13.2657 N.ar    1  UNL1       -0.2437
     22 C          66.3173   92.6916   12.1045 C.ar    1  UNL1        0.0847
     23 C          65.0609   91.8746   12.1700 C.ar    1  UNL1        0.0338
     24 C          66.6241   93.4984   10.8777 C.ar    1  UNL1        0.0460
     25 C          65.8791   94.7730   10.6126 C.ar    1  UNL1        0.0151
     26 C          66.1859   95.5798    9.3858 C.ar    1  UNL1        0.0579
     27 CL         65.4409   96.8545    9.1207 Cl      1  UNL1       -0.0822
     28 C          67.2377   95.1120    8.4242 C.ar    1  UNL1        0.0137
     29 C          67.9828   93.8373    8.6893 C.ar    1  UNL1        0.0306
     30 C          67.6760   93.0305    9.9160 C.ar    1  UNL1        0.1416
     31 F          68.4210   91.7560   10.1812 F       1  UNL1       -0.2041
@<TRIPOS>BOND
     1    13    14   am
     2    14    15    2
     3    14    12    1
     4    12     3    1
     5     3     4   ar
     6     4     5   ar
     7     5     6   ar
     8     6     7   ar
     9     7     8   ar
    10     8     9   ar
    11     9     1    1
    12     1    18    1
    13    18    19   ar
    14    19    20   ar
    15    20    21   ar
    16    21    22   ar
    17    22    24    1
    18    24    25   ar
    19    25    26   ar
    20    26    27    1
    21    26    28   ar
    22    28    29   ar
    23    29    30   ar
    24    30    31    1
    25    22    23   ar
    26     9    10   ar
    27    10    11   ar
    28    11     3   ar
    29    10     5   ar
    30    23    18   ar
    31    30    24   ar
    32    13    16    1
    33    13    17    1
    34     1     2    1
@<TRIPOS>MOLECULE
*****
 31 34 0 0 0
SMALL
GASTEIGER

@<TRIPOS>ATOM
      1 N          63.1655   90.2637   13.4504 N.pl3   1  UNL1       -0.3111
      2 H          62.2559   90.6251   13.3445 H       1  UNL1        0.1523
      3 N          61.5188   86.9268   10.5928 N.ar    1  UNL1       -0.2385
      4 C          62.2048   85.8169   11.3326 C.ar    1  UNL1        0.1163
      5 C          62.9613   86.4214   12.4781 C.ar    1  UNL1        0.1205
      6 N          63.8209   85.8127   13.5460 N.ar    1  UNL1       -0.2406
      7 C          64.4620   86.6876   14.5821 C.ar    1  UNL1        0.1003
      8 C          64.2435   88.1712   14.5502 C.ar    1  UNL1        0.0369
      9 C          63.3840   88.7800   13.4823 C.ar    1  UNL1        0.0710
     10 C          62.7429   87.9051   12.4462 C.ar    1  UNL1        0.1333
     11 N          61.8513   88.2174   11.2811 N.ar    1  UNL1       -0.1659
     12 C          60.6524   86.7732    9.3780 C.3     1  UNL1        0.2116
     13 N          59.0974   87.8171    7.5773 N.am    1  UNL1       -0.3272
     14 C          59.9950   87.9758    8.7686 C.2     1  UNL1        0.2443
     15 O          60.2353   89.3374    9.3505 O.2     1  UNL1       -0.2732
     16 H          58.6660   88.6065    7.1774 H       1  UNL1        0.1450
     17 H          58.9398   86.9235    7.1954 H       1  UNL1        0.1450
     18 C          64.3329   91.1966   13.5800 C.ar    1  UNL1        0.0514
     19 C          64.8778   91.5323   14.9367 C.ar    1  UNL1        0.0353
     20 C          66.0451   92.4653   15.0662 C.ar    1  UNL1        0.1001
     21 N          66.6677   93.0625   13.8392 N.ar    1  UNL1       -0.2437
     22 C          66.1229   92.7268   12.4825 C.ar    1  UNL1        0.0847
     23 C          64.9555   91.7938   12.3529 C.ar    1  UNL1        0.0338
     24 C          66.7455   93.3240   11.2555 C.ar    1  UNL1        0.0460
     25 C          67.5269   92.4572   10.3132 C.ar    1  UNL1        0.0151
     26 C          68.1495   93.0544    9.0861 C.ar    1  UNL1        0.0579
     27 CL         68.9310   92.1875    8.1439 Cl      1  UNL1       -0.0822
     28 C          67.9907   94.5185    8.8013 C.ar    1  UNL1        0.0137
     29 C          67.2092   95.3854    9.7436 C.ar    1  UNL1        0.0306
     30 C          66.5867   94.7882   10.9707 C.ar    1  UNL1        0.1416
     31 F          65.8052   95.6551   11.9129 F       1  UNL1       -0.2041
@<TRIPOS>BOND
     1    13    14   am
     2    14    15    2
     3    14    12    1
     4    12     3    1
     5     3     4   ar
     6     4     5   ar
     7     5     6   ar
     8     6     7   ar
     9     7     8   ar
    10     8     9   ar
    11     9     1    1
    12     1    18    1
    13    18    19   ar
    14    19    20   ar
    15    20    21   ar
    16    21    22   ar
    17    22    24    1
    18    24    25   ar
    19    25    26   ar
    20    26    27    1
    21    26    28   ar
    22    28    29   ar
    23    29    30   ar
    24    30    31    1
    25    22    23   ar
    26     9    10   ar
    27    10    11   ar
    28    11     3   ar
    29    10     5   ar
    30    23    18   ar
    31    30    24   ar
    32    13    16    1
    33    13    17    1
    34     1     2    1
