@<TRIPOS>MOLECULE
*****
 29 34 0 0 0
SMALL
GASTEIGER

@<TRIPOS>ATOM
      1 C          61.4630   88.3682   10.0365 C.3     1  UNL1        0.0261
      2 C          60.2389   88.0013    9.2510 C.3     1  UNL1        0.0042
      3 C          61.4872   87.1798    9.1216 C.3     1  UNL1        0.0003
      4 C          61.5114   85.9913    8.2068 C.3     1  UNL1        0.0000
      5 C          60.2873   85.6243    7.4214 C.3     1  UNL1        0.0000
      6 C          59.0390   86.4458    7.5508 C.3     1  UNL1        0.0000
      7 C          59.0147   87.6343    8.4656 C.3     1  UNL1        0.0003
      8 C          61.2838   87.8092    9.5283 C.3     1  UNL1        0.0003
      9 C          62.7113   87.5468    9.9071 C.3     1  UNL1        0.0042
     10 C          62.7355   86.3583    8.9923 C.3     1  UNL1        0.0003
     11 C          64.1598   90.5935   12.8694 C.ar    1  UNL1       -0.0000
     12 C          63.6052   91.2876   11.6609 C.ar    1  UNL1       -0.0003
     13 C          62.7062   90.5459   10.7165 C.ar    1  UNL1       -0.0043
     14 C          62.3619   89.1100   10.9807 C.ar    1  UNL1       -0.0224
     15 C          62.9166   88.4159   12.1893 C.ar    1  UNL1       -0.0043
     16 C          63.8155   89.1576   13.1336 C.ar    1  UNL1       -0.0003
     17 C          66.8567   92.8188   15.7022 C.ar    1  UNL1        0.0000
     18 C          67.2276   92.6963   14.2539 C.ar    1  UNL1        0.0000
     19 C          66.3286   91.9544   13.3097 C.ar    1  UNL1       -0.0000
     20 C          65.0588   91.3353   13.8137 C.ar    1  UNL1       -0.0000
     21 C          64.6878   91.4578   15.2619 C.ar    1  UNL1       -0.0000
     22 C          65.5868   92.1996   16.2062 C.ar    1  UNL1        0.0000
     23 C          60.5268   89.4474   10.4938 C.3     1  UNL1        0.0711
     24 C          59.6952   89.2464   11.7258 C.ar    1  UNL1        0.1577
     25 N          60.0851   89.6248   13.1240 N.ar    1  UNL1       -0.1129
     26 N          58.9586   89.2441   14.0384 N.ar    1  UNL1       -0.0232
     27 N          57.8725   88.6305   13.2054 N.ar    1  UNL1       -0.0466
     28 N          58.3278   88.6319   11.7762 N.ar    1  UNL1       -0.2422
     29 H          57.8185   88.2896   11.0063 H       1  UNL1        0.1920
@<TRIPOS>BOND
     1    17    18   ar
     2    18    19   ar
     3    19    20   ar
     4    20    11    1
     5    11    12   ar
     6    12    13   ar
     7    13    14   ar
     8    14     1    1
     9     1    23    1
    10    23    24    1
    11    24    25   ar
    12    25    26   ar
    13    26    27   ar
    14    27    28   ar
    15     1     2    1
    16     2     3    1
    17     3     4    1
    18     4     5    1
    19     5     6    1
    20     6     7    1
    21     6     8    1
    22     8     9    1
    23     9    10    1
    24    14    15   ar
    25    15    16   ar
    26    20    21   ar
    27    21    22   ar
    28    22    17   ar
    29    16    11   ar
    30     9     1    1
    31    28    24   ar
    32     7     2    1
    33    10     4    1
    34    28    29    1
@<TRIPOS>MOLECULE
*****
 29 34 0 0 0
SMALL
GASTEIGER

@<TRIPOS>ATOM
      1 C          64.8180   91.6964   12.6831 C.3     1  UNL1        0.0261
      2 C          65.7173   92.8201   13.1057 C.3     1  UNL1        0.0042
      3 C          65.4620   91.6728   14.0376 C.3     1  UNL1        0.0003
      4 C          66.1060   91.6492   15.3921 C.3     1  UNL1        0.0000
      5 C          67.0053   92.7729   15.8147 C.3     1  UNL1        0.0000
      6 C          67.2605   93.9202   14.8828 C.3     1  UNL1        0.0000
      7 C          66.6166   93.9438   13.5283 C.3     1  UNL1        0.0003
      8 C          65.2293   91.8602   13.3210 C.3     1  UNL1        0.0003
      9 C          64.5628   90.5491   13.6150 C.3     1  UNL1        0.0042
     10 C          65.2067   90.5255   14.9695 C.3     1  UNL1        0.0003
     11 C          62.0527   89.2222   10.1373 C.ar    1  UNL1       -0.0000
     12 C          62.5035   90.5715    9.6619 C.ar    1  UNL1       -0.0003
     13 C          63.4253   91.3963   10.5105 C.ar    1  UNL1       -0.0043
     14 C          63.8963   90.8717   11.8345 C.ar    1  UNL1       -0.0224
     15 C          63.4454   89.5223   12.3099 C.ar    1  UNL1       -0.0043
     16 C          62.5237   88.6976   11.4613 C.ar    1  UNL1       -0.0003
     17 C          59.2874   86.7480    7.5914 C.ar    1  UNL1        0.0000
     18 C          60.3790   86.0837    8.3770 C.ar    1  UNL1        0.0000
     19 C          61.3007   86.9085    9.2257 C.ar    1  UNL1       -0.0000
     20 C          61.1309   88.3975    9.2886 C.ar    1  UNL1       -0.0000
     21 C          60.0393   89.0618    8.5030 C.ar    1  UNL1       -0.0000
     22 C          59.1176   88.2370    7.6544 C.ar    1  UNL1        0.0000
     23 C          64.7532   92.5573   11.4565 C.3     1  UNL1        0.0711
     24 C          65.9962   92.8232   10.6602 C.ar    1  UNL1        0.1577
     25 N          67.2408   91.9859   10.6626 N.ar    1  UNL1       -0.1129
     26 N          68.2267   92.6183    9.7256 N.ar    1  UNL1       -0.0232
     27 N          67.5916   93.8465    9.1441 N.ar    1  UNL1       -0.0466
     28 N          66.2131   93.9732    9.7217 N.ar    1  UNL1       -0.2422
     29 H          65.5645   94.6859    9.5203 H       1  UNL1        0.1920
@<TRIPOS>BOND
     1    17    18   ar
     2    18    19   ar
     3    19    20   ar
     4    20    11    1
     5    11    12   ar
     6    12    13   ar
     7    13    14   ar
     8    14     1    1
     9     1    23    1
    10    23    24    1
    11    24    25   ar
    12    25    26   ar
    13    26    27   ar
    14    27    28   ar
    15     1     2    1
    16     2     3    1
    17     3     4    1
    18     4     5    1
    19     5     6    1
    20     6     7    1
    21     6     8    1
    22     8     9    1
    23     9    10    1
    24    14    15   ar
    25    15    16   ar
    26    20    21   ar
    27    21    22   ar
    28    22    17   ar
    29    16    11   ar
    30     9     1    1
    31    28    24   ar
    32     7     2    1
    33    10     4    1
    34    28    29    1
@<TRIPOS>MOLECULE
*****
 29 34 0 0 0
SMALL
GASTEIGER

@<TRIPOS>ATOM
      1 C          61.8053   85.9207    9.9636 C.3     1  UNL1        0.0261
      2 C          62.1797   85.1772   11.2114 C.3     1  UNL1        0.0042
      3 C          62.8300   84.8269    9.9059 C.3     1  UNL1        0.0003
      4 C          63.8548   83.7330    9.8483 C.3     1  UNL1        0.0000
      5 C          64.2292   82.9895   11.0961 C.3     1  UNL1        0.0000
      6 C          63.5788   83.3398   12.4015 C.3     1  UNL1        0.0000
      7 C          62.5541   84.4337   12.4592 C.3     1  UNL1        0.0003
      8 C          62.2963   85.3434   10.1322 C.3     1  UNL1        0.0003
      9 C          62.4556   85.5704    8.6581 C.3     1  UNL1        0.0042
     10 C          63.4804   84.4766    8.6005 C.3     1  UNL1        0.0003
     11 C          59.7572   88.8722    7.2536 C.ar    1  UNL1       -0.0000
     12 C          60.8003   89.3429    8.2232 C.ar    1  UNL1       -0.0003
     13 C          61.4831   88.3591    9.1266 C.ar    1  UNL1       -0.0043
     14 C          61.1226   86.9046    9.0603 C.ar    1  UNL1       -0.0224
     15 C          60.0795   86.4339    8.0906 C.ar    1  UNL1       -0.0043
     16 C          59.3968   87.4176    7.1872 C.ar    1  UNL1       -0.0003
     17 C          57.7092   91.8237    4.5436 C.ar    1  UNL1        0.0000
     18 C          56.8961   90.8412    5.3333 C.ar    1  UNL1        0.0000
     19 C          57.5789   89.8574    6.2367 C.ar    1  UNL1       -0.0000
     20 C          59.0745   89.8561    6.3502 C.ar    1  UNL1       -0.0000
     21 C          59.8876   90.8385    5.5605 C.ar    1  UNL1       -0.0000
     22 C          59.2048   91.8224    4.6571 C.ar    1  UNL1        0.0000
     23 C          60.9178   86.6127   10.9553 C.3     1  UNL1        0.0711
     24 C          61.4246   87.8050   11.7114 C.ar    1  UNL1        0.1577
     25 N          60.6155   89.0015   12.1162 N.ar    1  UNL1       -0.1129
     26 N          61.5203   89.9461   12.8504 N.ar    1  UNL1       -0.0232
     27 N          62.8886   89.3335   12.8994 N.ar    1  UNL1       -0.0466
     28 N          62.8295   88.0102   12.1955 N.ar    1  UNL1       -0.2422
     29 H          63.5809   87.3860   12.0727 H       1  UNL1        0.1920
@<TRIPOS>BOND
     1    17    18   ar
     2    18    19   ar
     3    19    20   ar
     4    20    11    1
     5    11    12   ar
     6    12    13   ar
     7    13    14   ar
     8    14     1    1
     9     1    23    1
    10    23    24    1
    11    24    25   ar
    12    25    26   ar
    13    26    27   ar
    14    27    28   ar
    15     1     2    1
    16     2     3    1
    17     3     4    1
    18     4     5    1
    19     5     6    1
    20     6     7    1
    21     6     8    1
    22     8     9    1
    23     9    10    1
    24    14    15   ar
    25    15    16   ar
    26    20    21   ar
    27    21    22   ar
    28    22    17   ar
    29    16    11   ar
    30     9     1    1
    31    28    24   ar
    32     7     2    1
    33    10     4    1
    34    28    29    1
@<TRIPOS>MOLECULE
*****
 29 34 0 0 0
SMALL
GASTEIGER

@<TRIPOS>ATOM
      1 C          63.6020   84.1387   13.4312 C.3     1  UNL1        0.0261
      2 C          63.3477   82.6714   13.6118 C.3     1  UNL1        0.0042
      3 C          63.3179   83.2743   12.2387 C.3     1  UNL1        0.0003
      4 C          63.0338   82.4100   11.0462 C.3     1  UNL1        0.0000
      5 C          62.7796   80.9428   11.2268 C.3     1  UNL1        0.0000
      6 C          62.8094   80.3399   12.5999 C.3     1  UNL1        0.0000
      7 C          63.0935   81.2042   13.7925 C.3     1  UNL1        0.0003
      8 C          63.4426   83.5464   12.9551 C.3     1  UNL1        0.0003
      9 C          63.5721   84.7416   12.0581 C.3     1  UNL1        0.0042
     10 C          63.2880   83.8772   10.8655 C.3     1  UNL1        0.0003
     11 C          64.5048   88.4296   14.4423 C.ar    1  UNL1       -0.0000
     12 C          63.4996   88.1057   13.3772 C.ar    1  UNL1       -0.0003
     13 C          63.1986   86.6753   13.0401 C.ar    1  UNL1       -0.0043
     14 C          63.9028   85.5690   13.7682 C.ar    1  UNL1       -0.0224
     15 C          64.9081   85.8931   14.8334 C.ar    1  UNL1       -0.0043
     16 C          65.2090   87.3234   15.1704 C.ar    1  UNL1       -0.0003
     17 C          65.4076   92.7207   15.4533 C.ar    1  UNL1        0.0000
     18 C          66.1932   92.0208   14.3842 C.ar    1  UNL1        0.0000
     19 C          65.8922   90.5904   14.0473 C.ar    1  UNL1       -0.0000
     20 C          64.8057   89.8601   14.7793 C.ar    1  UNL1       -0.0000
     21 C          64.0200   90.5600   15.8484 C.ar    1  UNL1       -0.0000
     22 C          64.3210   91.9903   16.1853 C.ar    1  UNL1        0.0000
     23 C          63.7363   84.0325   14.9214 C.3     1  UNL1        0.0711
     24 C          62.8133   84.8070   15.8148 C.ar    1  UNL1        0.1577
     25 N          63.1873   85.4682   17.1083 N.ar    1  UNL1       -0.1129
     26 N          61.9594   86.1261   17.6645 N.ar    1  UNL1       -0.0232
     27 N          60.8266   85.8716   16.7150 N.ar    1  UNL1       -0.0466
     28 N          61.3542   85.0563   15.5717 N.ar    1  UNL1       -0.2422
     29 H          60.8343   84.7403   14.7978 H       1  UNL1        0.1920
@<TRIPOS>BOND
     1    17    18   ar
     2    18    19   ar
     3    19    20   ar
     4    20    11    1
     5    11    12   ar
     6    12    13   ar
     7    13    14   ar
     8    14     1    1
     9     1    23    1
    10    23    24    1
    11    24    25   ar
    12    25    26   ar
    13    26    27   ar
    14    27    28   ar
    15     1     2    1
    16     2     3    1
    17     3     4    1
    18     4     5    1
    19     5     6    1
    20     6     7    1
    21     6     8    1
    22     8     9    1
    23     9    10    1
    24    14    15   ar
    25    15    16   ar
    26    20    21   ar
    27    21    22   ar
    28    22    17   ar
    29    16    11   ar
    30     9     1    1
    31    28    24   ar
    32     7     2    1
    33    10     4    1
    34    28    29    1
@<TRIPOS>MOLECULE
*****
 29 34 0 0 0
SMALL
GASTEIGER

@<TRIPOS>ATOM
      1 C          61.5599   88.4798   10.2856 C.3     1  UNL1        0.0261
      2 C          60.7730   87.3743    9.6464 C.3     1  UNL1        0.0042
      3 C          60.6538   88.7767    9.1277 C.3     1  UNL1        0.0003
      4 C          59.7477   89.0735    7.9697 C.3     1  UNL1        0.0000
      5 C          58.9608   87.9679    7.3305 C.3     1  UNL1        0.0000
      6 C          59.0800   86.5656    7.8493 C.3     1  UNL1        0.0000
      7 C          59.9861   86.2688    9.0072 C.3     1  UNL1        0.0003
      8 C          61.0552   88.4343    9.6974 C.3     1  UNL1        0.0003
      9 C          61.4407   89.8822    9.7669 C.3     1  UNL1        0.0042
     10 C          60.5346   90.1790    8.6089 C.3     1  UNL1        0.0003
     11 C          64.3856   90.5898   13.0808 C.ar    1  UNL1       -0.0000
     12 C          63.9002   89.2085   13.4069 C.ar    1  UNL1       -0.0003
     13 C          62.9583   88.5051   12.4752 C.ar    1  UNL1       -0.0043
     14 C          62.5018   89.1831   11.2174 C.ar    1  UNL1       -0.0224
     15 C          62.9872   90.5645   10.8914 C.ar    1  UNL1       -0.0043
     16 C          63.9291   91.2678   11.8231 C.ar    1  UNL1       -0.0003
     17 C          67.2113   92.6996   15.8762 C.ar    1  UNL1        0.0000
     18 C          65.8290   92.3420   16.3361 C.ar    1  UNL1        0.0000
     19 C          64.8871   91.6387   15.4042 C.ar    1  UNL1       -0.0000
     20 C          65.3276   91.2931   14.0127 C.ar    1  UNL1       -0.0000
     21 C          66.7098   91.6507   13.5528 C.ar    1  UNL1       -0.0000
     22 C          67.6517   92.3540   14.4847 C.ar    1  UNL1        0.0000
     23 C          62.0062   87.3217   11.1280 C.3     1  UNL1        0.0711
     24 C          62.5902   86.1025   10.4780 C.ar    1  UNL1        0.1577
     25 N          62.8077   84.7717   11.1351 N.ar    1  UNL1       -0.1129
     26 N          63.4112   83.8467   10.1201 N.ar    1  UNL1       -0.0232
     27 N          63.5667   84.6058    8.8358 N.ar    1  UNL1       -0.0466
     28 N          63.0594   86.0000    9.0569 N.ar    1  UNL1       -0.2422
     29 H          63.0380   86.7211    8.3870 H       1  UNL1        0.1920
@<TRIPOS>BOND
     1    17    18   ar
     2    18    19   ar
     3    19    20   ar
     4    20    11    1
     5    11    12   ar
     6    12    13   ar
     7    13    14   ar
     8    14     1    1
     9     1    23    1
    10    23    24    1
    11    24    25   ar
    12    25    26   ar
    13    26    27   ar
    14    27    28   ar
    15     1     2    1
    16     2     3    1
    17     3     4    1
    18     4     5    1
    19     5     6    1
    20     6     7    1
    21     6     8    1
    22     8     9    1
    23     9    10    1
    24    14    15   ar
    25    15    16   ar
    26    20    21   ar
    27    21    22   ar
    28    22    17   ar
    29    16    11   ar
    30     9     1    1
    31    28    24   ar
    32     7     2    1
    33    10     4    1
    34    28    29    1
