@<TRIPOS>MOLECULE
*****
 37 40 0 0 0
SMALL
GASTEIGER

@<TRIPOS>ATOM
      1 N          63.2151   89.9251   15.3144 N.3     1  UNL1       -0.2727
      2 C          62.9414   89.7405   13.8512 C.3     1  UNL1        0.0722
      3 C          63.7193   90.5264   12.8377 C.3     1  UNL1        0.0204
      4 C          64.7709   91.4969   13.2874 C.3     1  UNL1        0.0353
      5 C          65.0446   91.6816   14.7507 C.3     1  UNL1        0.0204
      6 C          64.2667   90.8956   15.7642 C.3     1  UNL1        0.0722
      7 C          65.5488   92.2829   12.2739 C.3     1  UNL1        0.1256
      8 O          64.4717   92.0397   11.2586 O.3     1  UNL1       -0.3786
      9 H          64.5099   91.1171   10.9614 H       1  UNL1        0.2111
     10 C          66.3266   93.0688   11.2604 C.ar    1  UNL1        0.0056
     11 C          67.2972   92.3711   10.3543 C.ar    1  UNL1       -0.0017
     12 C          68.0751   93.1570    9.3407 C.ar    1  UNL1       -0.0002
     13 C          67.8824   94.6407    9.2334 C.ar    1  UNL1       -0.0000
     14 C          66.9118   95.3385   10.1395 C.ar    1  UNL1       -0.0002
     15 C          66.1339   94.5526   11.1531 C.ar    1  UNL1       -0.0017
     16 C          66.6258   92.5261   13.2892 C.ar    1  UNL1        0.0056
     17 C          66.5398   93.7111   14.2047 C.ar    1  UNL1       -0.0017
     18 C          67.6169   93.9543   15.2199 C.ar    1  UNL1       -0.0002
     19 C          68.7800   93.0125   15.3197 C.ar    1  UNL1       -0.0000
     20 C          68.8660   91.8274   14.4042 C.ar    1  UNL1       -0.0002
     21 C          67.7890   91.5842   13.3889 C.ar    1  UNL1       -0.0017
     22 C          62.4372   89.1391   16.3279 C.3     1  UNL1        0.0722
     23 C          63.1202   88.0787   17.1398 C.3     1  UNL1        0.0202
     24 C          63.1335   86.6580   16.6587 C.3     1  UNL1        0.0352
     25 C          63.8929   86.2935   15.4176 C.3     1  UNL1        0.1328
     26 O          64.9219   87.2344   14.8646 O.3     1  UNL1       -0.3801
     27 H          64.9713   88.0249   15.4245 H       1  UNL1        0.2108
     28 C          63.0841   82.3775   13.3534 C.ar    1  UNL1       -0.0228
     29 C          64.0680   83.3456   12.7664 C.ar    1  UNL1       -0.0045
     30 C          64.3376   84.6510   13.4544 C.ar    1  UNL1       -0.0023
     31 C          63.6233   84.9882   14.7296 C.ar    1  UNL1        0.0042
     32 C          62.6394   84.0201   15.3166 C.ar    1  UNL1       -0.0023
     33 C          62.3698   82.7148   14.6285 C.ar    1  UNL1       -0.0045
     34 C          63.2280   81.6768   11.3563 C.3     1  UNL1        0.0044
     35 C          62.8145   81.0722   12.6653 C.3     1  UNL1        0.0189
     36 C          62.4010   80.4676   13.9743 C.3     1  UNL1        0.0044
     37 C          62.5449   79.7669   11.9773 C.3     1  UNL1        0.0044
@<TRIPOS>BOND
     1    34    35    1
     2    35    36    1
     3    35    37    1
     4    35    28    1
     5    28    29   ar
     6    29    30   ar
     7    30    31   ar
     8    31    25    1
     9    25    26    1
    10    25    24    1
    11    24    23    1
    12    23    22    1
    13    22     1    1
    14     1     2    1
    15     2     3    1
    16     3     4    1
    17     4     7    1
    18     7     8    1
    19     7    10    1
    20    10    11   ar
    21    11    12   ar
    22    12    13   ar
    23    13    14   ar
    24    14    15   ar
    25     7    16    1
    26    16    17   ar
    27    17    18   ar
    28    18    19   ar
    29    19    20   ar
    30    20    21   ar
    31     4     5    1
    32     5     6    1
    33    31    32   ar
    34    32    33   ar
    35    33    28   ar
    36     6     1    1
    37    15    10   ar
    38    21    16   ar
    39    26    27    1
    40     8     9    1
@<TRIPOS>MOLECULE
*****
 37 40 0 0 0
SMALL
GASTEIGER

@<TRIPOS>ATOM
      1 N          61.2003   90.0418   10.7068 N.3     1  UNL1       -0.2727
      2 C          61.1635   89.7609   12.1798 C.3     1  UNL1        0.0722
      3 C          62.3128   90.1735   13.0510 C.3     1  UNL1        0.0204
      4 C          63.4988   90.8670   12.4492 C.3     1  UNL1        0.0353
      5 C          63.5357   91.1480   10.9761 C.3     1  UNL1        0.0204
      6 C          62.3864   90.7354   10.1050 C.3     1  UNL1        0.0722
      7 C          64.6481   91.2796   13.3204 C.3     1  UNL1        0.1256
      8 O          65.0320   92.3272   12.3178 O.3     1  UNL1       -0.3786
      9 H          65.4298   91.9020   11.5420 H       1  UNL1        0.2111
     10 C          65.7974   91.6922   14.1915 C.ar    1  UNL1        0.0056
     11 C          67.2054   91.5397   13.6976 C.ar    1  UNL1       -0.0017
     12 C          68.3547   91.9524   14.5687 C.ar    1  UNL1       -0.0002
     13 C          68.0959   92.5174   15.9339 C.ar    1  UNL1       -0.0000
     14 C          66.6878   92.6699   16.4279 C.ar    1  UNL1       -0.0002
     15 C          65.5385   92.2573   15.5567 C.ar    1  UNL1       -0.0017
     16 C          64.2642   90.2320   14.3229 C.ar    1  UNL1        0.0056
     17 C          64.5794   88.7896   14.0585 C.ar    1  UNL1       -0.0017
     18 C          64.1955   87.7420   15.0611 C.ar    1  UNL1       -0.0002
     19 C          63.4965   88.1368   16.3281 C.ar    1  UNL1       -0.0000
     20 C          63.1813   89.5792   16.5925 C.ar    1  UNL1       -0.0002
     21 C          63.5652   90.6268   15.5900 C.ar    1  UNL1       -0.0017
     22 C          60.0510   89.6292    9.8357 C.3     1  UNL1        0.0722
     23 C          60.1633   89.7395    8.3439 C.3     1  UNL1        0.0202
     24 C          60.1150   88.5040    7.4947 C.3     1  UNL1        0.0352
     25 C          59.7228   87.1904    8.1035 C.3     1  UNL1        0.1328
     26 O          58.3331   86.6598    7.9111 O.3     1  UNL1       -0.3801
     27 H          57.8205   87.2834    7.3733 H       1  UNL1        0.2108
     28 C          62.7154   84.8415   10.5071 C.ar    1  UNL1       -0.0228
     29 C          62.7776   84.8241    9.0085 C.ar    1  UNL1       -0.0045
     30 C          61.7800   85.6071    8.2073 C.ar    1  UNL1       -0.0023
     31 C          60.7203   86.4074    8.9047 C.ar    1  UNL1        0.0042
     32 C          60.6582   86.4248   10.4033 C.ar    1  UNL1       -0.0023
     33 C          61.6557   85.6419   11.2045 C.ar    1  UNL1       -0.0045
     34 C          63.3111   84.8099   12.5428 C.3     1  UNL1        0.0044
     35 C          63.7129   84.0585   11.3083 C.3     1  UNL1        0.0189
     36 C          64.1147   83.3072   10.0738 C.3     1  UNL1        0.0044
     37 C          64.7104   83.2756   12.1095 C.3     1  UNL1        0.0044
@<TRIPOS>BOND
     1    34    35    1
     2    35    36    1
     3    35    37    1
     4    35    28    1
     5    28    29   ar
     6    29    30   ar
     7    30    31   ar
     8    31    25    1
     9    25    26    1
    10    25    24    1
    11    24    23    1
    12    23    22    1
    13    22     1    1
    14     1     2    1
    15     2     3    1
    16     3     4    1
    17     4     7    1
    18     7     8    1
    19     7    10    1
    20    10    11   ar
    21    11    12   ar
    22    12    13   ar
    23    13    14   ar
    24    14    15   ar
    25     7    16    1
    26    16    17   ar
    27    17    18   ar
    28    18    19   ar
    29    19    20   ar
    30    20    21   ar
    31     4     5    1
    32     5     6    1
    33    31    32   ar
    34    32    33   ar
    35    33    28   ar
    36     6     1    1
    37    15    10   ar
    38    21    16   ar
    39    26    27    1
    40     8     9    1
@<TRIPOS>MOLECULE
*****
 37 40 0 0 0
SMALL
GASTEIGER

@<TRIPOS>ATOM
      1 N          61.1985   90.0350   10.7173 N.3     1  UNL1       -0.2727
      2 C          61.1679   89.7507   12.1898 C.3     1  UNL1        0.0722
      3 C          62.3195   90.1642   13.0575 C.3     1  UNL1        0.0204
      4 C          63.5016   90.8618   12.4528 C.3     1  UNL1        0.0353
      5 C          63.5323   91.1461   10.9802 C.3     1  UNL1        0.0204
      6 C          62.3807   90.7326   10.1125 C.3     1  UNL1        0.0722
      7 C          64.6532   91.2752   13.3205 C.3     1  UNL1        0.1256
      8 O          65.0377   92.3182   12.3133 O.3     1  UNL1       -0.3786
      9 H          65.4333   91.8892   11.5386 H       1  UNL1        0.2111
     10 C          65.8048   91.6886   14.1882 C.ar    1  UNL1        0.0056
     11 C          65.5495   92.2568   15.5528 C.ar    1  UNL1       -0.0017
     12 C          66.7011   92.6702   16.4205 C.ar    1  UNL1       -0.0002
     13 C          68.1079   92.5155   15.9237 C.ar    1  UNL1       -0.0000
     14 C          68.3632   91.9473   14.5591 C.ar    1  UNL1       -0.0002
     15 C          67.2117   91.5339   13.6914 C.ar    1  UNL1       -0.0017
     16 C          64.2687   90.2322   14.3276 C.ar    1  UNL1        0.0056
     17 C          63.5732   90.6334   15.5946 C.ar    1  UNL1       -0.0017
     18 C          63.1887   89.5904   16.6018 C.ar    1  UNL1       -0.0002
     19 C          63.4998   88.1463   16.3420 C.ar    1  UNL1       -0.0000
     20 C          64.1953   87.7451   15.0750 C.ar    1  UNL1       -0.0002
     21 C          64.5797   88.7880   14.0678 C.ar    1  UNL1       -0.0017
     22 C          60.0469   89.6215    9.8495 C.3     1  UNL1        0.0722
     23 C          60.1538   89.7342    8.3575 C.3     1  UNL1        0.0202
     24 C          60.1193   88.4986    7.5078 C.3     1  UNL1        0.0352
     25 C          59.7222   87.1841    8.1113 C.3     1  UNL1        0.1328
     26 O          58.3288   86.6622    7.9216 O.3     1  UNL1       -0.3801
     27 H          57.8176   87.2914    7.3890 H       1  UNL1        0.2108
     28 C          62.7109   84.8063   10.4913 C.ar    1  UNL1       -0.0228
     29 C          61.6788   85.6350   11.1971 C.ar    1  UNL1       -0.0045
     30 C          60.6826   86.4276   10.4038 C.ar    1  UNL1       -0.0023
     31 C          60.7184   86.3915    8.9047 C.ar    1  UNL1        0.0042
     32 C          61.7504   85.5628    8.1989 C.ar    1  UNL1       -0.0023
     33 C          62.7466   84.7702    8.9922 C.ar    1  UNL1       -0.0045
     34 C          63.3023   84.7492   12.5277 C.3     1  UNL1        0.0044
     35 C          63.7071   84.0138   11.2846 C.3     1  UNL1        0.0189
     36 C          64.1119   83.2783   10.0415 C.3     1  UNL1        0.0044
     37 C          64.7033   83.2212   12.0779 C.3     1  UNL1        0.0044
@<TRIPOS>BOND
     1    34    35    1
     2    35    36    1
     3    35    37    1
     4    35    28    1
     5    28    29   ar
     6    29    30   ar
     7    30    31   ar
     8    31    25    1
     9    25    26    1
    10    25    24    1
    11    24    23    1
    12    23    22    1
    13    22     1    1
    14     1     2    1
    15     2     3    1
    16     3     4    1
    17     4     7    1
    18     7     8    1
    19     7    10    1
    20    10    11   ar
    21    11    12   ar
    22    12    13   ar
    23    13    14   ar
    24    14    15   ar
    25     7    16    1
    26    16    17   ar
    27    17    18   ar
    28    18    19   ar
    29    19    20   ar
    30    20    21   ar
    31     4     5    1
    32     5     6    1
    33    31    32   ar
    34    32    33   ar
    35    33    28   ar
    36     6     1    1
    37    15    10   ar
    38    21    16   ar
    39    26    27    1
    40     8     9    1
@<TRIPOS>MOLECULE
*****
 37 40 0 0 0
SMALL
GASTEIGER

@<TRIPOS>ATOM
      1 N          61.2624   90.0271   10.5993 N.3     1  UNL1       -0.2727
      2 C          62.4640   90.7203   10.0287 C.3     1  UNL1        0.0722
      3 C          63.5902   91.1327   10.9296 C.3     1  UNL1        0.0204
      4 C          63.5148   90.8520   12.4011 C.3     1  UNL1        0.0353
      5 C          62.3132   90.1588   12.9718 C.3     1  UNL1        0.0204
      6 C          61.1870   89.7463   12.0710 C.3     1  UNL1        0.0722
      7 C          64.6410   91.2644   13.3020 C.3     1  UNL1        0.1256
      8 O          65.0253   92.3396   12.3293 O.3     1  UNL1       -0.3786
      9 H          65.4443   91.9379   11.5521 H       1  UNL1        0.2111
     10 C          65.7672   91.6768   14.2028 C.ar    1  UNL1        0.0056
     11 C          65.4727   92.2516   15.5566 C.ar    1  UNL1       -0.0017
     12 C          66.5989   92.6641   16.4575 C.ar    1  UNL1       -0.0002
     13 C          68.0196   92.5017   16.0046 C.ar    1  UNL1       -0.0000
     14 C          68.3142   91.9269   14.6507 C.ar    1  UNL1       -0.0002
     15 C          67.1880   91.5144   13.7499 C.ar    1  UNL1       -0.0017
     16 C          64.2567   90.1892   14.2747 C.ar    1  UNL1        0.0056
     17 C          64.5868   88.7564   13.9779 C.ar    1  UNL1       -0.0017
     18 C          64.2025   87.6812   14.9506 C.ar    1  UNL1       -0.0002
     19 C          63.4880   88.0387   16.2201 C.ar    1  UNL1       -0.0000
     20 C          63.1579   89.4715   16.5169 C.ar    1  UNL1       -0.0002
     21 C          63.5422   90.5467   15.5442 C.ar    1  UNL1       -0.0017
     22 C          60.1362   89.6147    9.6985 C.3     1  UNL1        0.0722
     23 C          60.3844   88.6398    8.5857 C.3     1  UNL1        0.0202
     24 C          60.0504   87.1893    8.7710 C.3     1  UNL1        0.0352
     25 C          61.1281   86.1516    8.6618 C.3     1  UNL1        0.1328
     26 O          61.5627   85.6609    7.3127 O.3     1  UNL1       -0.3801
     27 H          61.0508   86.1130    6.6238 H       1  UNL1        0.2108
     28 C          63.0569   84.5108   12.3816 C.ar    1  UNL1       -0.0228
     29 C          63.4126   83.9432   11.0395 C.ar    1  UNL1       -0.0045
     30 C          62.7697   84.4901    9.7996 C.ar    1  UNL1       -0.0023
     31 C          61.7710   85.6047    9.9017 C.ar    1  UNL1        0.0042
     32 C          61.4153   86.1723   11.2438 C.ar    1  UNL1       -0.0023
     33 C          62.0583   85.6253   12.4838 C.ar    1  UNL1       -0.0045
     34 C          62.5193   84.4117   14.4313 C.3     1  UNL1        0.0044
     35 C          63.6999   83.9638   13.6216 C.3     1  UNL1        0.0189
     36 C          64.8805   83.5159   12.8118 C.3     1  UNL1        0.0044
     37 C          64.3429   83.4169   14.8615 C.3     1  UNL1        0.0044
@<TRIPOS>BOND
     1    34    35    1
     2    35    36    1
     3    35    37    1
     4    35    28    1
     5    28    29   ar
     6    29    30   ar
     7    30    31   ar
     8    31    25    1
     9    25    26    1
    10    25    24    1
    11    24    23    1
    12    23    22    1
    13    22     1    1
    14     1     2    1
    15     2     3    1
    16     3     4    1
    17     4     7    1
    18     7     8    1
    19     7    10    1
    20    10    11   ar
    21    11    12   ar
    22    12    13   ar
    23    13    14   ar
    24    14    15   ar
    25     7    16    1
    26    16    17   ar
    27    17    18   ar
    28    18    19   ar
    29    19    20   ar
    30    20    21   ar
    31     4     5    1
    32     5     6    1
    33    31    32   ar
    34    32    33   ar
    35    33    28   ar
    36     6     1    1
    37    15    10   ar
    38    21    16   ar
    39    26    27    1
    40     8     9    1
@<TRIPOS>MOLECULE
*****
 37 40 0 0 0
SMALL
GASTEIGER

@<TRIPOS>ATOM
      1 N          62.0230   90.4392   10.6715 N.3     1  UNL1       -0.2727
      2 C          62.1930   89.8931   12.0582 C.3     1  UNL1        0.0722
      3 C          63.3667   90.3149   12.8916 C.3     1  UNL1        0.0204
      4 C          64.3703   91.2827   12.3385 C.3     1  UNL1        0.0353
      5 C          64.2003   91.8288   10.9517 C.3     1  UNL1        0.0204
      6 C          63.0266   91.4071   10.1183 C.3     1  UNL1        0.0722
      7 C          65.5439   91.7044   13.1719 C.3     1  UNL1        0.1256
      8 O          65.0721   90.8169   14.2854 O.3     1  UNL1       -0.3786
      9 H          64.2941   91.2137   14.7075 H       1  UNL1        0.2111
     10 C          66.7176   92.1261   14.0054 C.ar    1  UNL1        0.0056
     11 C          68.1104   91.7812   13.5684 C.ar    1  UNL1       -0.0017
     12 C          69.2841   92.2029   14.4019 C.ar    1  UNL1       -0.0002
     13 C          69.0649   92.9696   15.6723 C.ar    1  UNL1       -0.0000
     14 C          67.6720   93.3146   16.1093 C.ar    1  UNL1       -0.0002
     15 C          66.4984   92.8929   15.2759 C.ar    1  UNL1       -0.0017
     16 C          66.0158   92.5919   12.0584 C.ar    1  UNL1        0.0056
     17 C          65.7132   94.0606   12.0905 C.ar    1  UNL1       -0.0017
     18 C          66.1850   94.9481   10.9770 C.ar    1  UNL1       -0.0002
     19 C          66.9594   94.3668    9.8315 C.ar    1  UNL1       -0.0000
     20 C          67.2620   92.8980    9.7995 C.ar    1  UNL1       -0.0002
     21 C          66.7902   92.0105   10.9129 C.ar    1  UNL1       -0.0017
     22 C          60.8493   90.0175    9.8381 C.3     1  UNL1        0.0722
     23 C          61.0345   89.0225    8.7309 C.3     1  UNL1        0.0202
     24 C          60.2729   87.7304    8.7485 C.3     1  UNL1        0.0352
     25 C          60.9958   86.4309    8.5516 C.3     1  UNL1        0.1328
     26 O          60.9736   85.7558    7.2123 O.3     1  UNL1       -0.3801
     27 H          60.4520   86.2875    6.5908 H       1  UNL1        0.2108
     28 C          63.2311   84.5578   11.9787 C.ar    1  UNL1       -0.0228
     29 C          63.5997   84.2145   10.5658 C.ar    1  UNL1       -0.0045
     30 C          62.8546   84.8389    9.4235 C.ar    1  UNL1       -0.0023
     31 C          61.7409   85.8066    9.6940 C.ar    1  UNL1        0.0042
     32 C          61.3723   86.1499   11.1068 C.ar    1  UNL1       -0.0023
     33 C          62.1173   85.5255   12.2492 C.ar    1  UNL1       -0.0045
     34 C          64.0939   82.6550   12.3455 C.3     1  UNL1        0.0044
     35 C          63.9762   83.9335   13.1211 C.3     1  UNL1        0.0189
     36 C          63.8584   85.2120   13.8967 C.3     1  UNL1        0.0044
     37 C          64.7212   83.3091   14.2634 C.3     1  UNL1        0.0044
@<TRIPOS>BOND
     1    34    35    1
     2    35    36    1
     3    35    37    1
     4    35    28    1
     5    28    29   ar
     6    29    30   ar
     7    30    31   ar
     8    31    25    1
     9    25    26    1
    10    25    24    1
    11    24    23    1
    12    23    22    1
    13    22     1    1
    14     1     2    1
    15     2     3    1
    16     3     4    1
    17     4     7    1
    18     7     8    1
    19     7    10    1
    20    10    11   ar
    21    11    12   ar
    22    12    13   ar
    23    13    14   ar
    24    14    15   ar
    25     7    16    1
    26    16    17   ar
    27    17    18   ar
    28    18    19   ar
    29    19    20   ar
    30    20    21   ar
    31     4     5    1
    32     5     6    1
    33    31    32   ar
    34    32    33   ar
    35    33    28   ar
    36     6     1    1
    37    15    10   ar
    38    21    16   ar
    39    26    27    1
    40     8     9    1
@<TRIPOS>MOLECULE
*****
 37 40 0 0 0
SMALL
GASTEIGER

@<TRIPOS>ATOM
      1 N          60.0007   91.2355    4.8243 N.3     1  UNL1       -0.2727
      2 C          59.3819   92.3909    4.0948 C.3     1  UNL1        0.0722
      3 C          60.1691   93.1278    3.0521 C.3     1  UNL1        0.0204
      4 C          61.5750   92.7093    2.7387 C.3     1  UNL1        0.0353
      5 C          62.1938   91.5538    3.4682 C.3     1  UNL1        0.0204
      6 C          61.4067   90.8169    4.5110 C.3     1  UNL1        0.0722
      7 C          62.3621   93.4461    1.6960 C.3     1  UNL1        0.1256
      8 O          63.5803   93.3799    2.5687 O.3     1  UNL1       -0.3786
      9 H          63.4816   93.9986    3.3092 H       1  UNL1        0.2111
     10 C          63.1493   94.1830    0.6532 C.ar    1  UNL1        0.0056
     11 C          63.7787   95.5040    0.9829 C.ar    1  UNL1       -0.0017
     12 C          64.5659   96.2409   -0.0599 C.ar    1  UNL1       -0.0002
     13 C          64.7236   95.6568   -1.4324 C.ar    1  UNL1       -0.0000
     14 C          64.0941   94.3357   -1.7622 C.ar    1  UNL1       -0.0002
     15 C          63.3070   93.5988   -0.7194 C.ar    1  UNL1       -0.0017
     16 C          61.1440   93.5124    0.8232 C.ar    1  UNL1        0.0056
     17 C          60.6359   92.2724    0.1492 C.ar    1  UNL1       -0.0017
     18 C          59.4177   92.3387   -0.7235 C.ar    1  UNL1       -0.0002
     19 C          58.7076   93.6449   -0.9222 C.ar    1  UNL1       -0.0000
     20 C          59.2157   94.8848   -0.2482 C.ar    1  UNL1       -0.0002
     21 C          60.4338   94.8186    0.6245 C.ar    1  UNL1       -0.0017
     22 C          59.2136   90.4986    5.8671 C.3     1  UNL1        0.0722
     23 C          59.6542   89.1369    6.3163 C.3     1  UNL1        0.0202
     24 C          59.2278   88.6149    7.6564 C.3     1  UNL1        0.0352
     25 C          60.1222   88.7881    8.8480 C.3     1  UNL1        0.1328
     26 O          60.2505   90.1328    9.5001 O.3     1  UNL1       -0.3801
     27 H          59.6937   90.7740    9.0314 H       1  UNL1        0.2108
     28 C          62.4204   85.2740   10.4663 C.ar    1  UNL1       -0.0228
     29 C          62.4766   85.5971    9.0026 C.ar    1  UNL1       -0.0045
     30 C          61.7105   86.7685    8.4632 C.ar    1  UNL1       -0.0023
     31 C          60.8883   87.6168    9.3874 C.ar    1  UNL1        0.0042
     32 C          60.8321   87.2937   10.8511 C.ar    1  UNL1       -0.0023
     33 C          61.5982   86.1223   11.3906 C.ar    1  UNL1       -0.0045
     34 C          63.6900   83.7967    9.6263 C.3     1  UNL1        0.0044
     35 C          63.1865   84.1026   11.0058 C.3     1  UNL1        0.0189
     36 C          62.6830   84.4086   12.3852 C.3     1  UNL1        0.0044
     37 C          63.9526   82.9312   11.5452 C.3     1  UNL1        0.0044
@<TRIPOS>BOND
     1    34    35    1
     2    35    36    1
     3    35    37    1
     4    35    28    1
     5    28    29   ar
     6    29    30   ar
     7    30    31   ar
     8    31    25    1
     9    25    26    1
    10    25    24    1
    11    24    23    1
    12    23    22    1
    13    22     1    1
    14     1     2    1
    15     2     3    1
    16     3     4    1
    17     4     7    1
    18     7     8    1
    19     7    10    1
    20    10    11   ar
    21    11    12   ar
    22    12    13   ar
    23    13    14   ar
    24    14    15   ar
    25     7    16    1
    26    16    17   ar
    27    17    18   ar
    28    18    19   ar
    29    19    20   ar
    30    20    21   ar
    31     4     5    1
    32     5     6    1
    33    31    32   ar
    34    32    33   ar
    35    33    28   ar
    36     6     1    1
    37    15    10   ar
    38    21    16   ar
    39    26    27    1
    40     8     9    1
@<TRIPOS>MOLECULE
*****
 37 40 0 0 0
SMALL
GASTEIGER

@<TRIPOS>ATOM
      1 N          61.5017   87.6133    9.8399 N.3     1  UNL1       -0.2727
      2 C          60.9540   87.3261   11.2064 C.3     1  UNL1        0.0722
      3 C          61.3052   86.0438   11.9010 C.3     1  UNL1        0.0204
      4 C          62.2041   85.0487   11.2289 C.3     1  UNL1        0.0353
      5 C          62.7518   85.3358    9.8623 C.3     1  UNL1        0.0204
      6 C          62.4006   86.6181    9.1678 C.3     1  UNL1        0.0722
      7 C          62.5552   83.7664   11.9235 C.3     1  UNL1        0.1256
      8 O          62.2207   83.0002   10.6781 O.3     1  UNL1       -0.3786
      9 H          61.2581   82.9798   10.5598 H       1  UNL1        0.2111
     10 C          62.9064   82.4841   12.6180 C.ar    1  UNL1        0.0056
     11 C          61.8547   81.4372   12.8368 C.ar    1  UNL1       -0.0017
     12 C          62.2058   80.1549   13.5313 C.ar    1  UNL1       -0.0002
     13 C          63.6087   79.9194   14.0071 C.ar    1  UNL1       -0.0000
     14 C          64.6606   80.9663   13.7883 C.ar    1  UNL1       -0.0002
     15 C          64.3094   82.2486   13.0938 C.ar    1  UNL1       -0.0017
     16 C          62.8898   84.5325   13.1689 C.ar    1  UNL1        0.0056
     17 C          62.2321   84.1751   14.4688 C.ar    1  UNL1       -0.0017
     18 C          62.5667   84.9413   15.7142 C.ar    1  UNL1       -0.0002
     19 C          63.5589   86.0649   15.6597 C.ar    1  UNL1       -0.0000
     20 C          64.2165   86.4223   14.3598 C.ar    1  UNL1       -0.0002
     21 C          63.8820   85.6561   13.1144 C.ar    1  UNL1       -0.0017
     22 C          61.1505   88.8956    9.1453 C.3     1  UNL1        0.0722
     23 C          61.4495   90.2106    9.8023 C.3     1  UNL1        0.0202
     24 C          62.7400   90.4031   10.5423 C.3     1  UNL1        0.0352
     25 C          62.7430   90.4660   12.0409 C.3     1  UNL1        0.1328
     26 O          61.5201   90.0641   12.8109 O.3     1  UNL1       -0.3801
     27 H          60.8239   89.7917   12.1928 H       1  UNL1        0.2108
     28 C          66.4209   91.8604   14.2269 C.ar    1  UNL1       -0.0228
     29 C          66.0509   92.4785   12.9113 C.ar    1  UNL1       -0.0045
     30 C          64.8249   92.0137   12.1826 C.ar    1  UNL1       -0.0023
     31 C          63.9690   90.9308   12.7696 C.ar    1  UNL1        0.0042
     32 C          64.3390   90.3126   14.0852 C.ar    1  UNL1       -0.0023
     33 C          65.5650   90.7774   14.8139 C.ar    1  UNL1       -0.0045
     34 C          68.4986   91.8902   13.8000 C.3     1  UNL1        0.0044
     35 C          67.6469   92.3252   14.9556 C.3     1  UNL1        0.0189
     36 C          66.7951   92.7602   16.1111 C.3     1  UNL1        0.0044
     37 C          68.8729   92.7900   15.6843 C.3     1  UNL1        0.0044
@<TRIPOS>BOND
     1    34    35    1
     2    35    36    1
     3    35    37    1
     4    35    28    1
     5    28    29   ar
     6    29    30   ar
     7    30    31   ar
     8    31    25    1
     9    25    26    1
    10    25    24    1
    11    24    23    1
    12    23    22    1
    13    22     1    1
    14     1     2    1
    15     2     3    1
    16     3     4    1
    17     4     7    1
    18     7     8    1
    19     7    10    1
    20    10    11   ar
    21    11    12   ar
    22    12    13   ar
    23    13    14   ar
    24    14    15   ar
    25     7    16    1
    26    16    17   ar
    27    17    18   ar
    28    18    19   ar
    29    19    20   ar
    30    20    21   ar
    31     4     5    1
    32     5     6    1
    33    31    32   ar
    34    32    33   ar
    35    33    28   ar
    36     6     1    1
    37    15    10   ar
    38    21    16   ar
    39    26    27    1
    40     8     9    1
@<TRIPOS>MOLECULE
*****
 37 40 0 0 0
SMALL
GASTEIGER

@<TRIPOS>ATOM
      1 N          60.2226   91.8174    4.1791 N.3     1  UNL1       -0.2727
      2 C          59.3027   92.5739    3.2672 C.3     1  UNL1        0.0722
      3 C          59.8145   93.1130    1.9643 C.3     1  UNL1        0.0204
      4 C          61.2462   92.8956    1.5734 C.3     1  UNL1        0.0353
      5 C          62.1662   92.1391    2.4853 C.3     1  UNL1        0.0204
      6 C          61.6544   91.6000    3.7881 C.3     1  UNL1        0.0722
      7 C          61.7581   93.4347    0.2705 C.3     1  UNL1        0.1256
      8 O          60.9862   92.3819   -0.4683 O.3     1  UNL1       -0.3786
      9 H          61.4193   91.5218   -0.3516 H       1  UNL1        0.2111
     10 C          62.2699   93.9738   -1.0323 C.ar    1  UNL1        0.0056
     11 C          61.4445   94.9510   -1.8157 C.ar    1  UNL1       -0.0017
     12 C          61.9563   95.4901   -3.1186 C.ar    1  UNL1       -0.0002
     13 C          63.2936   95.0520   -3.6380 C.ar    1  UNL1       -0.0000
     14 C          64.1190   94.0748   -2.8546 C.ar    1  UNL1       -0.0002
     15 C          63.6072   93.5357   -1.5517 C.ar    1  UNL1       -0.0017
     16 C          62.5299   94.4875    1.0094 C.ar    1  UNL1        0.0056
     17 C          61.8852   95.8032    1.3307 C.ar    1  UNL1       -0.0017
     18 C          62.6571   96.8560    2.0696 C.ar    1  UNL1       -0.0002
     19 C          64.0736   96.5931    2.4871 C.ar    1  UNL1       -0.0000
     20 C          64.7182   95.2774    2.1657 C.ar    1  UNL1       -0.0002
     21 C          63.9464   94.2246    1.4269 C.ar    1  UNL1       -0.0017
     22 C          59.7107   91.2783    5.4819 C.3     1  UNL1        0.0722
     23 C          60.0895   89.8952    5.9219 C.3     1  UNL1        0.0202
     24 C          59.3528   89.2396    7.0521 C.3     1  UNL1        0.0352
     25 C          59.9297   89.2619    8.4365 C.3     1  UNL1        0.1328
     26 O          59.7313   90.4633    9.3124 O.3     1  UNL1       -0.3801
     27 H          59.2126   91.1295    8.8348 H       1  UNL1        0.2108
     28 C          62.2556   85.7245    9.9621 C.ar    1  UNL1       -0.0228
     29 C          61.5848   85.6597    8.6220 C.ar    1  UNL1       -0.0045
     30 C          60.8095   86.8388    8.1135 C.ar    1  UNL1       -0.0023
     31 C          60.7050   88.0828    8.9450 C.ar    1  UNL1        0.0042
     32 C          61.3757   88.1476   10.2851 C.ar    1  UNL1       -0.0023
     33 C          62.1510   86.9685   10.7936 C.ar    1  UNL1       -0.0045
     34 C          62.5547   84.8331   11.8637 C.3     1  UNL1        0.0044
     35 C          63.0309   84.5454   10.4706 C.3     1  UNL1        0.0189
     36 C          63.5070   84.2577    9.0776 C.3     1  UNL1        0.0044
     37 C          63.8061   83.3663   10.9792 C.3     1  UNL1        0.0044
@<TRIPOS>BOND
     1    34    35    1
     2    35    36    1
     3    35    37    1
     4    35    28    1
     5    28    29   ar
     6    29    30   ar
     7    30    31   ar
     8    31    25    1
     9    25    26    1
    10    25    24    1
    11    24    23    1
    12    23    22    1
    13    22     1    1
    14     1     2    1
    15     2     3    1
    16     3     4    1
    17     4     7    1
    18     7     8    1
    19     7    10    1
    20    10    11   ar
    21    11    12   ar
    22    12    13   ar
    23    13    14   ar
    24    14    15   ar
    25     7    16    1
    26    16    17   ar
    27    17    18   ar
    28    18    19   ar
    29    19    20   ar
    30    20    21   ar
    31     4     5    1
    32     5     6    1
    33    31    32   ar
    34    32    33   ar
    35    33    28   ar
    36     6     1    1
    37    15    10   ar
    38    21    16   ar
    39    26    27    1
    40     8     9    1
