@<TRIPOS>MOLECULE
*****
 11 11 0 0 0
SMALL
GASTEIGER

@<TRIPOS>ATOM
      1 C          60.2825   86.0425    7.8460 C.ar    1  UNL1        0.0578
      2 C          60.8244   86.4429    9.1861 C.ar    1  UNL1        0.0155
      3 C          62.2202   86.0564    9.5766 C.ar    1  UNL1        0.0013
      4 C          63.0740   85.2695    8.6270 C.ar    1  UNL1        0.0001
      5 C          62.5321   84.8691    7.2869 C.ar    1  UNL1        0.0013
      6 C          61.1363   85.2556    6.8964 C.ar    1  UNL1        0.0155
      7 N          58.5013   87.8768    7.3852 N.3     1  UNL1       -0.2565
      8 N          58.8867   86.4289    7.4554 N.pl3   1  UNL1       -0.2818
      9 H          57.5233   87.9552    7.1062 H       1  UNL1        0.1404
     10 H          59.0893   88.3524    6.7007 H       1  UNL1        0.1404
     11 H          58.2236   85.7323    7.2452 H       1  UNL1        0.1660
@<TRIPOS>BOND
     1     7     8    1
     2     8     1    1
     3     1     2   ar
     4     2     3   ar
     5     3     4   ar
     6     4     5   ar
     7     5     6   ar
     8     6     1   ar
     9     7     9    1
    10     7    10    1
    11     8    11    1
@<TRIPOS>MOLECULE
*****
 11 11 0 0 0
SMALL
GASTEIGER

@<TRIPOS>ATOM
      1 C          63.6360   89.3519   15.6224 C.ar    1  UNL1        0.0578
      2 C          64.3200   88.4847   14.6075 C.ar    1  UNL1        0.0155
      3 C          64.3913   87.0009   14.8149 C.ar    1  UNL1        0.0013
      4 C          63.7785   86.3842   16.0372 C.ar    1  UNL1        0.0001
      5 C          63.0945   87.2513   17.0521 C.ar    1  UNL1        0.0013
      6 C          63.0232   88.7352   16.8447 C.ar    1  UNL1        0.0155
      7 N          63.5835   91.7600   16.5962 N.3     1  UNL1       -0.2565
      8 N          63.5647   90.8358   15.4149 N.pl3   1  UNL1       -0.2818
      9 H          63.5281   92.7259   16.2731 H       1  UNL1        0.1404
     10 H          64.4488   91.6256   17.1193 H       1  UNL1        0.1404
     11 H          63.5056   91.2031   14.5034 H       1  UNL1        0.1660
@<TRIPOS>BOND
     1     7     8    1
     2     8     1    1
     3     1     2   ar
     4     2     3   ar
     5     3     4   ar
     6     4     5   ar
     7     5     6   ar
     8     6     1   ar
     9     7     9    1
    10     7    10    1
    11     8    11    1
@<TRIPOS>MOLECULE
*****
 11 11 0 0 0
SMALL
GASTEIGER

@<TRIPOS>ATOM
      1 C          63.0743   82.0221   13.2692 C.ar    1  UNL1        0.0578
      2 C          62.7116   80.9898   12.2431 C.ar    1  UNL1        0.0155
      3 C          63.1751   81.1466   10.8252 C.ar    1  UNL1        0.0013
      4 C          64.0011   82.3357   10.4333 C.ar    1  UNL1        0.0001
      5 C          64.3638   83.3680   11.4593 C.ar    1  UNL1        0.0013
      6 C          63.9003   83.2112   12.8773 C.ar    1  UNL1        0.0155
      7 N          62.7263   83.0136   15.6453 N.3     1  UNL1       -0.2565
      8 N          62.6108   81.8653   14.6872 N.pl3   1  UNL1       -0.2818
      9 H          62.3666   82.7327   16.5575 H       1  UNL1        0.1404
     10 H          62.1852   83.8042   15.2952 H       1  UNL1        0.1404
     11 H          62.2308   81.0087   14.9890 H       1  UNL1        0.1660
@<TRIPOS>BOND
     1     7     8    1
     2     8     1    1
     3     1     2   ar
     4     2     3   ar
     5     3     4   ar
     6     4     5   ar
     7     5     6   ar
     8     6     1   ar
     9     7     9    1
    10     7    10    1
    11     8    11    1
@<TRIPOS>MOLECULE
*****
 11 11 0 0 0
SMALL
GASTEIGER

@<TRIPOS>ATOM
      1 C          64.0550   86.0005   15.7319 C.ar    1  UNL1        0.0578
      2 C          64.4518   87.1334   14.8324 C.ar    1  UNL1        0.0155
      3 C          64.0443   88.5370   15.1698 C.ar    1  UNL1        0.0013
      4 C          63.2402   88.8077   16.4067 C.ar    1  UNL1        0.0001
      5 C          62.8434   87.6748   17.3062 C.ar    1  UNL1        0.0013
      6 C          63.2509   86.2712   16.9688 C.ar    1  UNL1        0.0155
      7 N          65.4782   84.3488   14.3189 N.3     1  UNL1       -0.2565
      8 N          64.4625   84.5969   15.3945 N.pl3   1  UNL1       -0.2818
      9 H          65.6340   83.3453   14.2235 H       1  UNL1        0.1404
     10 H          66.3550   84.8069   14.5671 H       1  UNL1        0.1404
     11 H          64.0632   83.8385   15.8789 H       1  UNL1        0.1660
@<TRIPOS>BOND
     1     7     8    1
     2     8     1    1
     3     1     2   ar
     4     2     3   ar
     5     3     4   ar
     6     4     5   ar
     7     5     6   ar
     8     6     1   ar
     9     7     9    1
    10     7    10    1
    11     8    11    1
@<TRIPOS>MOLECULE
*****
 11 11 0 0 0
SMALL
GASTEIGER

@<TRIPOS>ATOM
      1 C          63.7464   82.4660   12.5755 C.ar    1  UNL1        0.0578
      2 C          63.2661   83.2631   13.7518 C.ar    1  UNL1        0.0155
      3 C          62.1996   82.7081   14.6488 C.ar    1  UNL1        0.0013
      4 C          61.6134   81.3560   14.3694 C.ar    1  UNL1        0.0001
      5 C          62.0936   80.5589   13.1930 C.ar    1  UNL1        0.0013
      6 C          63.1601   81.1139   12.2960 C.ar    1  UNL1        0.0155
      7 N          64.7537   82.7729   10.2004 N.3     1  UNL1       -0.2565
      8 N          64.8129   83.0209   11.6785 N.pl3   1  UNL1       -0.2818
      9 H          65.5517   83.2194    9.7485 H       1  UNL1        0.1404
     10 H          63.8888   83.1619    9.8247 H       1  UNL1        0.1404
     11 H          65.5518   83.5480   12.0600 H       1  UNL1        0.1660
@<TRIPOS>BOND
     1     7     8    1
     2     8     1    1
     3     1     2   ar
     4     2     3   ar
     5     3     4   ar
     6     4     5   ar
     7     5     6   ar
     8     6     1   ar
     9     7     9    1
    10     7    10    1
    11     8    11    1
@<TRIPOS>MOLECULE
*****
 11 11 0 0 0
SMALL
GASTEIGER

@<TRIPOS>ATOM
      1 C          63.0708   84.3243   10.8677 C.ar    1  UNL1        0.0578
      2 C          63.4984   84.3283    9.4300 C.ar    1  UNL1        0.0155
      3 C          62.9204   85.3334    8.4783 C.ar    1  UNL1        0.0013
      4 C          61.9148   86.3346    8.9644 C.ar    1  UNL1        0.0001
      5 C          61.4872   86.3307   10.4021 C.ar    1  UNL1        0.0013
      6 C          62.0652   85.3256   11.3538 C.ar    1  UNL1        0.0155
      7 N          64.9726   82.6796   11.5219 N.3     1  UNL1       -0.2565
      8 N          63.6489   83.3192   11.8193 N.pl3   1  UNL1       -0.2818
      9 H          65.2105   82.0273   12.2691 H       1  UNL1        0.1404
     10 H          65.6917   83.4002   11.4578 H       1  UNL1        0.1404
     11 H          63.1594   83.0794   12.6392 H       1  UNL1        0.1660
@<TRIPOS>BOND
     1     7     8    1
     2     8     1    1
     3     1     2   ar
     4     2     3   ar
     5     3     4   ar
     6     4     5   ar
     7     5     6   ar
     8     6     1   ar
     9     7     9    1
    10     7    10    1
    11     8    11    1
@<TRIPOS>MOLECULE
*****
 11 11 0 0 0
SMALL
GASTEIGER

@<TRIPOS>ATOM
      1 C          62.5535   83.2837   13.5679 C.ar    1  UNL1        0.0578
      2 C          62.1616   82.0979   14.3987 C.ar    1  UNL1        0.0155
      3 C          62.2352   80.7173   13.8169 C.ar    1  UNL1        0.0013
      4 C          62.7007   80.5225   12.4044 C.ar    1  UNL1        0.0001
      5 C          63.0926   81.7083   11.5736 C.ar    1  UNL1        0.0013
      6 C          63.0191   83.0889   12.1554 C.ar    1  UNL1        0.0155
      7 N          62.0614   84.8553   15.5773 N.3     1  UNL1       -0.2565
      8 N          62.4800   84.6644   14.1497 N.pl3   1  UNL1       -0.2818
      9 H          62.0670   85.8500   15.8031 H       1  UNL1        0.1404
     10 H          62.7113   84.3637   16.1908 H       1  UNL1        0.1404
     11 H          62.7064   85.4452   13.5944 H       1  UNL1        0.1660
@<TRIPOS>BOND
     1     7     8    1
     2     8     1    1
     3     1     2   ar
     4     2     3   ar
     5     3     4   ar
     6     4     5   ar
     7     5     6   ar
     8     6     1   ar
     9     7     9    1
    10     7    10    1
    11     8    11    1
@<TRIPOS>MOLECULE
*****
 11 11 0 0 0
SMALL
GASTEIGER

@<TRIPOS>ATOM
      1 C          67.0564   91.9402   13.5336 C.ar    1  UNL1        0.0578
      2 C          66.6469   92.4907   12.1998 C.ar    1  UNL1        0.0155
      3 C          65.2483   92.2813   11.6994 C.ar    1  UNL1        0.0013
      4 C          64.2594   91.5215   12.5328 C.ar    1  UNL1        0.0001
      5 C          64.6690   90.9710   13.8667 C.ar    1  UNL1        0.0013
      6 C          66.0675   91.1804   14.3671 C.ar    1  UNL1        0.0155
      7 N          69.6239   91.8035   13.1600 N.3     1  UNL1       -0.2565
      8 N          68.4549   92.1495   14.0340 N.pl3   1  UNL1       -0.2818
      9 H          70.4914   92.0081   13.6558 H       1  UNL1        0.1404
     10 H          69.5833   92.3561   12.3036 H       1  UNL1        0.1404
     11 H          68.6056   92.5139   14.9361 H       1  UNL1        0.1660
@<TRIPOS>BOND
     1     7     8    1
     2     8     1    1
     3     1     2   ar
     4     2     3   ar
     5     3     4   ar
     6     4     5   ar
     7     5     6   ar
     8     6     1   ar
     9     7     9    1
    10     7    10    1
    11     8    11    1
@<TRIPOS>MOLECULE
*****
 11 11 0 0 0
SMALL
GASTEIGER

@<TRIPOS>ATOM
      1 C          63.5703   83.2868   12.8121 C.ar    1  UNL1        0.0578
      2 C          62.7254   84.4541   12.3957 C.ar    1  UNL1        0.0155
      3 C          62.6598   84.8552   10.9518 C.ar    1  UNL1        0.0013
      4 C          63.4391   84.0890    9.9244 C.ar    1  UNL1        0.0001
      5 C          64.2840   82.9217   10.3408 C.ar    1  UNL1        0.0013
      6 C          64.3496   82.5206   11.7847 C.ar    1  UNL1        0.0155
      7 N          62.5136   82.1011   14.8682 N.3     1  UNL1       -0.2565
      8 N          63.6359   82.8857   14.2560 N.pl3   1  UNL1       -0.2818
      9 H          62.7233   81.9168   15.8493 H       1  UNL1        0.1404
     10 H          62.4064   81.2168   14.3714 H       1  UNL1        0.1404
     11 H          64.4157   83.1373   14.8019 H       1  UNL1        0.1660
@<TRIPOS>BOND
     1     7     8    1
     2     8     1    1
     3     1     2   ar
     4     2     3   ar
     5     3     4   ar
     6     4     5   ar
     7     5     6   ar
     8     6     1   ar
     9     7     9    1
    10     7    10    1
    11     8    11    1
