@<TRIPOS>MOLECULE
*****
 25 28 0 0 0
SMALL
GASTEIGER

@<TRIPOS>ATOM
      1 C          64.1056   89.1859   13.3597 C.3     1  UNL1        0.1305
      2 N          63.4825   87.9349   12.8150 N.ar    1  UNL1       -0.3230
      3 C          63.6840   86.5464   13.3455 C.ar    1  UNL1        0.0949
      4 C          62.8744   85.6062   12.5025 C.ar    1  UNL1        0.1288
      5 C          62.1727   86.4136   11.4511 C.ar    1  UNL1        0.0344
      6 C          61.2399   86.0242   10.3427 C.ar    1  UNL1       -0.0018
      7 C          60.6831   87.0741    9.4274 C.ar    1  UNL1       -0.0246
      8 C          61.0589   88.5133    9.6206 C.ar    1  UNL1       -0.0233
      9 C          61.9916   88.9027   10.7289 C.ar    1  UNL1        0.0127
     10 C          62.5485   87.8529   11.6442 C.ar    1  UNL1        0.0609
     11 C          60.6208   89.7088    8.8276 C.3     1  UNL1        0.0431
     12 C          59.6987   89.7603    7.6455 C.3     1  UNL1        0.0733
     13 N          58.9871   88.6291    6.9647 N.3     1  UNL1       -0.2969
     14 C          59.0216   87.1669    7.2975 C.3     1  UNL1        0.0733
     15 C          59.7764   86.4748    8.3936 C.3     1  UNL1        0.0431
     16 H          59.2991   88.6777    5.9948 H       1  UNL1        0.1233
     17 S          62.7828   84.1195   12.6799 S.O2    1  UNL1        0.0289
     18 O          62.1617   84.3191   14.0307 O.2     1  UNL1       -0.1642
     19 O          63.4038   83.9199   11.3292 O.2     1  UNL1       -0.1642
     20 C          62.6911   82.6329   12.8574 C.ar    1  UNL1        0.1103
     21 C          62.2791   82.0596   14.1810 C.ar    1  UNL1        0.0187
     22 C          62.1874   80.5730   14.3585 C.ar    1  UNL1        0.0013
     23 C          62.5077   79.6596   13.2126 C.ar    1  UNL1        0.0001
     24 C          62.9198   80.2329   11.8892 C.ar    1  UNL1        0.0013
     25 C          63.0115   81.7195   11.7115 C.ar    1  UNL1        0.0187
@<TRIPOS>BOND
     1     1     2    1
     2     2     3   ar
     3     3     4   ar
     4     4    17    1
     5    17    18    2
     6    17    19    2
     7    17    20    1
     8    20    21   ar
     9    21    22   ar
    10    22    23   ar
    11    23    24   ar
    12    24    25   ar
    13     4     5   ar
    14     5     6   ar
    15     6     7   ar
    16     7     8   ar
    17     8     9   ar
    18     9    10   ar
    19     8    11    1
    20    11    12    1
    21    12    13    1
    22    13    14    1
    23    14    15    1
    24    10     2   ar
    25    25    20   ar
    26    10     5   ar
    27    15     7    1
    28    13    16    1
@<TRIPOS>MOLECULE
*****
 25 28 0 0 0
SMALL
GASTEIGER

@<TRIPOS>ATOM
      1 C          60.9695   88.4718    9.3508 C.3     1  UNL1        0.1305
      2 N          61.8389   88.4870   10.5730 N.ar    1  UNL1       -0.3230
      3 C          62.3790   89.7086   11.2557 C.ar    1  UNL1        0.0949
      4 C          63.1948   89.2598   12.4318 C.ar    1  UNL1        0.1288
      5 C          63.1590   87.7609   12.4759 C.ar    1  UNL1        0.0344
      6 C          63.7811   86.7692   13.4137 C.ar    1  UNL1       -0.0018
      7 C          63.5653   85.2999   13.2027 C.ar    1  UNL1       -0.0246
      8 C          62.7274   84.8223   12.0540 C.ar    1  UNL1       -0.0233
      9 C          62.1052   85.8139   11.1162 C.ar    1  UNL1        0.0127
     10 C          62.3210   87.2833   11.3271 C.ar    1  UNL1        0.0609
     11 C          62.3883   83.4136   11.6658 C.3     1  UNL1        0.0431
     12 C          62.8035   82.1346   12.3306 C.3     1  UNL1        0.0733
     13 N          63.6602   81.9485   13.5476 N.3     1  UNL1       -0.2969
     14 C          64.3135   82.9953   14.4006 C.3     1  UNL1        0.0733
     15 C          64.2712   84.4868   14.2471 C.3     1  UNL1        0.0431
     16 H          64.4307   81.3603   13.2301 H       1  UNL1        0.1233
     17 S          63.9192   90.1532   13.3946 S.O2    1  UNL1        0.0289
     18 O          64.5263   90.9005   12.2443 O.2     1  UNL1       -0.1642
     19 O          63.3122   89.4060   14.5449 O.2     1  UNL1       -0.1642
     20 C          64.6437   91.0467   14.3573 C.ar    1  UNL1        0.1103
     21 C          64.1204   91.2280   15.7514 C.ar    1  UNL1        0.0187
     22 C          64.8449   92.1215   16.7141 C.ar    1  UNL1        0.0013
     23 C          66.0927   92.8336   16.2828 C.ar    1  UNL1        0.0001
     24 C          66.6160   92.6522   14.8888 C.ar    1  UNL1        0.0013
     25 C          65.8915   91.7587   13.9260 C.ar    1  UNL1        0.0187
@<TRIPOS>BOND
     1     1     2    1
     2     2     3   ar
     3     3     4   ar
     4     4    17    1
     5    17    18    2
     6    17    19    2
     7    17    20    1
     8    20    21   ar
     9    21    22   ar
    10    22    23   ar
    11    23    24   ar
    12    24    25   ar
    13     4     5   ar
    14     5     6   ar
    15     6     7   ar
    16     7     8   ar
    17     8     9   ar
    18     9    10   ar
    19     8    11    1
    20    11    12    1
    21    12    13    1
    22    13    14    1
    23    14    15    1
    24    10     2   ar
    25    25    20   ar
    26    10     5   ar
    27    15     7    1
    28    13    16    1
@<TRIPOS>MOLECULE
*****
 25 28 0 0 0
SMALL
GASTEIGER

@<TRIPOS>ATOM
      1 C          64.6279   86.9060   14.8936 C.3     1  UNL1        0.1305
      2 N          64.0050   86.0426   13.8368 N.ar    1  UNL1       -0.3230
      3 C          64.0962   84.5478   13.7527 C.ar    1  UNL1        0.0949
      4 C          63.3291   84.1040   12.5424 C.ar    1  UNL1        0.1288
      5 C          62.7640   85.3246   11.8786 C.ar    1  UNL1        0.0344
      6 C          61.9229   85.4997   10.6489 C.ar    1  UNL1       -0.0018
      7 C          61.4996   86.8732   10.2193 C.ar    1  UNL1       -0.0246
      8 C          61.9173   88.0713   11.0192 C.ar    1  UNL1       -0.0233
      9 C          62.7584   87.8961   12.2488 C.ar    1  UNL1        0.0127
     10 C          63.1817   86.5227   12.6785 C.ar    1  UNL1        0.0609
     11 C          61.6071   89.5174   10.7689 C.3     1  UNL1        0.0431
     12 C          60.8024   90.1224    9.6569 C.3     1  UNL1        0.0733
     13 N          60.1094   89.4308    8.5206 N.3     1  UNL1       -0.2969
     14 C          60.0497   87.9634    8.2155 C.3     1  UNL1        0.0733
     15 C          60.6684   86.8251    8.9715 C.3     1  UNL1        0.0431
     16 H          60.5124   89.8499    7.6825 H       1  UNL1        0.1233
     17 S          63.1574   82.6882   12.0778 S.O2    1  UNL1        0.0289
     18 O          64.0532   82.9640   10.9066 O.2     1  UNL1       -0.1642
     19 O          62.2618   82.4123   13.2489 O.2     1  UNL1       -0.1642
     20 C          62.9859   81.2724   11.6130 C.ar    1  UNL1        0.1103
     21 C          63.1819   80.9290   10.1660 C.ar    1  UNL1        0.0187
     22 C          63.0103   79.5132    9.7012 C.ar    1  UNL1        0.0013
     23 C          62.6427   78.4407   10.6834 C.ar    1  UNL1        0.0001
     24 C          62.4467   78.7840   12.1303 C.ar    1  UNL1        0.0013
     25 C          62.6182   80.1999   12.5952 C.ar    1  UNL1        0.0187
@<TRIPOS>BOND
     1     1     2    1
     2     2     3   ar
     3     3     4   ar
     4     4    17    1
     5    17    18    2
     6    17    19    2
     7    17    20    1
     8    20    21   ar
     9    21    22   ar
    10    22    23   ar
    11    23    24   ar
    12    24    25   ar
    13     4     5   ar
    14     5     6   ar
    15     6     7   ar
    16     7     8   ar
    17     8     9   ar
    18     9    10   ar
    19     8    11    1
    20    11    12    1
    21    12    13    1
    22    13    14    1
    23    14    15    1
    24    10     2   ar
    25    25    20   ar
    26    10     5   ar
    27    15     7    1
    28    13    16    1
@<TRIPOS>MOLECULE
*****
 25 28 0 0 0
SMALL
GASTEIGER

@<TRIPOS>ATOM
      1 C          62.7284   87.0145   18.5024 C.3     1  UNL1        0.1305
      2 N          63.1010   87.3103   17.0798 N.ar    1  UNL1       -0.3230
      3 C          63.3929   88.6661   16.5084 C.ar    1  UNL1        0.0949
      4 C          63.7194   88.4958   15.0543 C.ar    1  UNL1        0.1288
      5 C          63.6292   87.0348   14.7270 C.ar    1  UNL1        0.0344
      6 C          63.8457   86.2769   13.4507 C.ar    1  UNL1       -0.0018
      7 C          63.6800   84.7863   13.4263 C.ar    1  UNL1       -0.0246
      8 C          63.2979   84.0536   14.6781 C.ar    1  UNL1       -0.0233
      9 C          63.0813   84.8114   15.9543 C.ar    1  UNL1        0.0127
     10 C          63.2470   86.3020   15.9788 C.ar    1  UNL1        0.0609
     11 C          63.0825   82.5817   14.8715 C.3     1  UNL1        0.0431
     12 C          63.1962   81.4791   13.8608 C.3     1  UNL1        0.0733
     13 N          63.5533   81.5761   12.4072 N.3     1  UNL1       -0.2969
     14 C          63.8849   82.7996   11.6052 C.3     1  UNL1        0.0733
     15 C          63.9413   84.2282   12.0587 C.3     1  UNL1        0.0431
     16 H          62.7596   81.1591   11.9208 H       1  UNL1        0.1233
     17 S          64.0737   89.5939   14.0959 S.O2    1  UNL1        0.0289
     18 O          65.3668   89.8123   14.8243 O.2     1  UNL1       -0.1642
     19 O          62.7808   89.3756   13.3675 O.2     1  UNL1       -0.1642
     20 C          64.4283   90.6920   13.1375 C.ar    1  UNL1        0.1103
     21 C          65.4676   91.7071   13.5112 C.ar    1  UNL1        0.0187
     22 C          65.8221   92.8052   12.5528 C.ar    1  UNL1        0.0013
     23 C          65.1374   92.8883   11.2208 C.ar    1  UNL1        0.0001
     24 C          64.0981   91.8734   10.8472 C.ar    1  UNL1        0.0013
     25 C          63.7435   90.7752   11.8055 C.ar    1  UNL1        0.0187
@<TRIPOS>BOND
     1     1     2    1
     2     2     3   ar
     3     3     4   ar
     4     4    17    1
     5    17    18    2
     6    17    19    2
     7    17    20    1
     8    20    21   ar
     9    21    22   ar
    10    22    23   ar
    11    23    24   ar
    12    24    25   ar
    13     4     5   ar
    14     5     6   ar
    15     6     7   ar
    16     7     8   ar
    17     8     9   ar
    18     9    10   ar
    19     8    11    1
    20    11    12    1
    21    12    13    1
    22    13    14    1
    23    14    15    1
    24    10     2   ar
    25    25    20   ar
    26    10     5   ar
    27    15     7    1
    28    13    16    1
@<TRIPOS>MOLECULE
*****
 25 28 0 0 0
SMALL
GASTEIGER

@<TRIPOS>ATOM
      1 C          60.5634   88.3283    8.5087 C.3     1  UNL1        0.1305
      2 N          61.2609   87.6457    9.6478 N.ar    1  UNL1       -0.3230
      3 C          61.2352   86.1754    9.9435 C.ar    1  UNL1        0.0949
      4 C          62.0649   85.9346   11.1697 C.ar    1  UNL1        0.1288
      5 C          62.6033   87.2561   11.6318 C.ar    1  UNL1        0.0344
      6 C          63.4820   87.6332   12.7877 C.ar    1  UNL1       -0.0018
      7 C          63.8636   89.0678   13.0029 C.ar    1  UNL1       -0.0246
      8 C          63.3667   90.1252   12.0624 C.ar    1  UNL1       -0.0233
      9 C          62.4881   89.7483   10.9066 C.ar    1  UNL1        0.0127
     10 C          62.1064   88.3137   10.6913 C.ar    1  UNL1        0.0609
     11 C          63.6257   91.6024   12.0948 C.3     1  UNL1        0.0431
     12 C          64.4457   92.3868   13.0759 C.3     1  UNL1        0.0733
     13 N          65.2091   91.8878   14.2667 N.3     1  UNL1       -0.2969
     14 C          65.3411   90.4812   14.7707 C.3     1  UNL1        0.0733
     15 C          64.7423   89.2261   14.2083 C.3     1  UNL1        0.0431
     16 H          64.8207   92.4062   15.0546 H       1  UNL1        0.1233
     17 S          62.3126   84.6056   11.8196 S.O2    1  UNL1        0.0289
     18 O          62.7980   84.0562   10.5109 O.2     1  UNL1       -0.1642
     19 O          61.8274   85.1550   13.1283 O.2     1  UNL1       -0.1642
     20 C          62.5604   83.2766   12.4693 C.ar    1  UNL1        0.1103
     21 C          62.6649   83.1796   13.9626 C.ar    1  UNL1        0.0187
     22 C          62.9126   81.8505   14.6123 C.ar    1  UNL1        0.0013
     23 C          63.0559   80.6184   13.7689 C.ar    1  UNL1        0.0001
     24 C          62.9515   80.7154   12.2757 C.ar    1  UNL1        0.0013
     25 C          62.7037   82.0445   11.6259 C.ar    1  UNL1        0.0187
@<TRIPOS>BOND
     1     1     2    1
     2     2     3   ar
     3     3     4   ar
     4     4    17    1
     5    17    18    2
     6    17    19    2
     7    17    20    1
     8    20    21   ar
     9    21    22   ar
    10    22    23   ar
    11    23    24   ar
    12    24    25   ar
    13     4     5   ar
    14     5     6   ar
    15     6     7   ar
    16     7     8   ar
    17     8     9   ar
    18     9    10   ar
    19     8    11    1
    20    11    12    1
    21    12    13    1
    22    13    14    1
    23    14    15    1
    24    10     2   ar
    25    25    20   ar
    26    10     5   ar
    27    15     7    1
    28    13    16    1
@<TRIPOS>MOLECULE
*****
 25 28 0 0 0
SMALL
GASTEIGER

@<TRIPOS>ATOM
      1 C          64.2319   86.3905   15.4352 C.3     1  UNL1        0.1305
      2 N          63.8004   87.1785   14.2340 N.ar    1  UNL1       -0.3230
      3 C          62.8467   86.7164   13.1725 C.ar    1  UNL1        0.0949
      4 C          62.7038   87.8193   12.1659 C.ar    1  UNL1        0.1288
      5 C          63.5692   88.9629   12.6052 C.ar    1  UNL1        0.0344
      6 C          63.8277   90.3138   12.0066 C.ar    1  UNL1       -0.0018
      7 C          64.7640   91.2686   12.6861 C.ar    1  UNL1       -0.0246
      8 C          65.4417   90.8726   13.9642 C.ar    1  UNL1       -0.0233
      9 C          65.1833   89.5217   14.5629 C.ar    1  UNL1        0.0127
     10 C          64.2470   88.5669   13.8834 C.ar    1  UNL1        0.0609
     11 C          66.4036   91.6664   14.7977 C.3     1  UNL1        0.0431
     12 C          66.9253   93.0524   14.5588 C.3     1  UNL1        0.0733
     13 N          66.6139   93.9867   13.4275 N.3     1  UNL1       -0.2969
     14 C          65.7039   93.7660   12.2556 C.3     1  UNL1        0.0733
     15 C          64.8806   92.5563   11.9256 C.3     1  UNL1        0.0431
     16 H          67.5213   94.1947   13.0107 H       1  UNL1        0.1233
     17 S          61.8460   87.7845   10.9359 S.O2    1  UNL1        0.0289
     18 O          61.0386   88.9320   11.4665 O.2     1  UNL1       -0.1642
     19 O          62.6533   86.6371   10.4051 O.2     1  UNL1       -0.1642
     20 C          60.9881   87.7499    9.7059 C.ar    1  UNL1        0.1103
     21 C          60.6109   86.4345    9.0914 C.ar    1  UNL1        0.0187
     22 C          59.7531   86.3998    7.8614 C.ar    1  UNL1        0.0013
     23 C          59.2724   87.6804    7.2459 C.ar    1  UNL1        0.0001
     24 C          59.6495   88.9958    7.8603 C.ar    1  UNL1        0.0013
     25 C          60.5074   89.0305    9.0903 C.ar    1  UNL1        0.0187
@<TRIPOS>BOND
     1     1     2    1
     2     2     3   ar
     3     3     4   ar
     4     4    17    1
     5    17    18    2
     6    17    19    2
     7    17    20    1
     8    20    21   ar
     9    21    22   ar
    10    22    23   ar
    11    23    24   ar
    12    24    25   ar
    13     4     5   ar
    14     5     6   ar
    15     6     7   ar
    16     7     8   ar
    17     8     9   ar
    18     9    10   ar
    19     8    11    1
    20    11    12    1
    21    12    13    1
    22    13    14    1
    23    14    15    1
    24    10     2   ar
    25    25    20   ar
    26    10     5   ar
    27    15     7    1
    28    13    16    1
@<TRIPOS>MOLECULE
*****
 25 28 0 0 0
SMALL
GASTEIGER

@<TRIPOS>ATOM
      1 C          60.0143   87.3366    9.1514 C.3     1  UNL1        0.1305
      2 N          61.1126   87.7895   10.0671 N.ar    1  UNL1       -0.3230
      3 C          61.7075   89.1656   10.1173 C.ar    1  UNL1        0.0949
      4 C          62.7714   89.1723   11.1748 C.ar    1  UNL1        0.1288
      5 C          62.8340   87.8004   11.7780 C.ar    1  UNL1        0.0344
      6 C          63.6921   87.2190   12.8623 C.ar    1  UNL1       -0.0018
      7 C          63.5250   85.7829   13.2620 C.ar    1  UNL1       -0.0246
      8 C          62.4999   84.9283   12.5775 C.ar    1  UNL1       -0.0233
      9 C          61.6418   85.5097   11.4933 C.ar    1  UNL1        0.0127
     10 C          61.8088   86.9458   11.0935 C.ar    1  UNL1        0.0609
     11 C          62.1726   83.4847   12.8205 C.3     1  UNL1        0.0431
     12 C          62.7898   82.5393   13.8082 C.3     1  UNL1        0.0733
     13 N          63.8864   82.8039   14.7966 N.3     1  UNL1       -0.2969
     14 C          64.6370   84.0793   15.0416 C.3     1  UNL1        0.0733
     15 C          64.4762   85.4051   14.3587 C.3     1  UNL1        0.0431
     16 H          64.6093   82.1226   14.5647 H       1  UNL1        0.1233
     17 S          63.6230   90.3451   11.5610 S.O2    1  UNL1        0.0289
     18 O          63.7850   89.7738   12.9385 O.2     1  UNL1       -0.1642
     19 O          63.4611   90.9164   10.1835 O.2     1  UNL1       -0.1642
     20 C          64.4747   91.5178   11.9473 C.ar    1  UNL1        0.1103
     21 C          64.9780   91.6481   13.3544 C.ar    1  UNL1        0.0187
     22 C          65.8297   92.8209   13.7407 C.ar    1  UNL1        0.0013
     23 C          66.1781   93.8634   12.7201 C.ar    1  UNL1        0.0001
     24 C          65.6749   93.7331   11.3130 C.ar    1  UNL1        0.0013
     25 C          64.8232   92.5603   10.9266 C.ar    1  UNL1        0.0187
@<TRIPOS>BOND
     1     1     2    1
     2     2     3   ar
     3     3     4   ar
     4     4    17    1
     5    17    18    2
     6    17    19    2
     7    17    20    1
     8    20    21   ar
     9    21    22   ar
    10    22    23   ar
    11    23    24   ar
    12    24    25   ar
    13     4     5   ar
    14     5     6   ar
    15     6     7   ar
    16     7     8   ar
    17     8     9   ar
    18     9    10   ar
    19     8    11    1
    20    11    12    1
    21    12    13    1
    22    13    14    1
    23    14    15    1
    24    10     2   ar
    25    25    20   ar
    26    10     5   ar
    27    15     7    1
    28    13    16    1
@<TRIPOS>MOLECULE
*****
 25 28 0 0 0
SMALL
GASTEIGER

@<TRIPOS>ATOM
      1 C          64.5665   89.5798   15.3299 C.3     1  UNL1        0.1305
      2 N          64.5242   90.3518   14.0445 N.ar    1  UNL1       -0.3230
      3 C          65.3775   91.5359   13.6986 C.ar    1  UNL1        0.0949
      4 C          65.0018   91.9910   12.3196 C.ar    1  UNL1        0.1288
      5 C          63.9163   91.0882   11.8132 C.ar    1  UNL1        0.0344
      6 C          63.1585   91.0577   10.5190 C.ar    1  UNL1       -0.0018
      7 C          62.1055   90.0140   10.2909 C.ar    1  UNL1       -0.0246
      8 C          61.8103   89.0009   11.3569 C.ar    1  UNL1       -0.0233
      9 C          62.5681   89.0314   12.6510 C.ar    1  UNL1        0.0127
     10 C          63.6211   90.0750   12.8792 C.ar    1  UNL1        0.0609
     11 C          60.8089   87.8843   11.3344 C.3     1  UNL1        0.0431
     12 C          59.8553   87.5052   10.2403 C.3     1  UNL1        0.0733
     13 N          59.6677   88.1489    8.8986 N.3     1  UNL1       -0.2969
     14 C          60.3872   89.3308    8.3195 C.3     1  UNL1        0.0733
     15 C          61.4722   90.1609    8.9391 C.3     1  UNL1        0.0431
     16 H          58.6830   88.4140    8.8779 H       1  UNL1        0.1233
     17 S          65.6056   93.1462   11.5774 S.O2    1  UNL1        0.0289
     18 O          65.6980   93.9210   12.8586 O.2     1  UNL1       -0.1642
     19 O          65.5132   92.3716   10.2962 O.2     1  UNL1       -0.1642
     20 C          66.2094   94.3015   10.8353 C.ar    1  UNL1        0.1103
     21 C          66.0383   95.6984   11.3546 C.ar    1  UNL1        0.0187
     22 C          66.6422   96.8536   10.6126 C.ar    1  UNL1        0.0013
     23 C          67.4172   96.6122    9.3512 C.ar    1  UNL1        0.0001
     24 C          67.5883   95.2154    8.8319 C.ar    1  UNL1        0.0013
     25 C          66.9844   94.0600    9.5739 C.ar    1  UNL1        0.0187
@<TRIPOS>BOND
     1     1     2    1
     2     2     3   ar
     3     3     4   ar
     4     4    17    1
     5    17    18    2
     6    17    19    2
     7    17    20    1
     8    20    21   ar
     9    21    22   ar
    10    22    23   ar
    11    23    24   ar
    12    24    25   ar
    13     4     5   ar
    14     5     6   ar
    15     6     7   ar
    16     7     8   ar
    17     8     9   ar
    18     9    10   ar
    19     8    11    1
    20    11    12    1
    21    12    13    1
    22    13    14    1
    23    14    15    1
    24    10     2   ar
    25    25    20   ar
    26    10     5   ar
    27    15     7    1
    28    13    16    1
@<TRIPOS>MOLECULE
*****
 25 28 0 0 0
SMALL
GASTEIGER

@<TRIPOS>ATOM
      1 C          64.2386   87.5120   15.4383 C.3     1  UNL1        0.1305
      2 N          63.8025   88.0622   14.1127 N.ar    1  UNL1       -0.3230
      3 C          62.8792   87.3905   13.1399 C.ar    1  UNL1        0.0949
      4 C          62.7193   88.2940   11.9532 C.ar    1  UNL1        0.1288
      5 C          63.5438   89.5240   12.1927 C.ar    1  UNL1        0.0344
      6 C          63.7714   90.7560   11.3677 C.ar    1  UNL1       -0.0018
      7 C          64.6685   91.8447   11.8776 C.ar    1  UNL1       -0.0246
      8 C          65.3379   91.7015   13.2121 C.ar    1  UNL1       -0.0233
      9 C          65.1103   90.4695   14.0371 C.ar    1  UNL1        0.0127
     10 C          64.2132   89.3807   13.5273 C.ar    1  UNL1        0.0609
     11 C          66.2630   92.6597   13.9021 C.3     1  UNL1        0.0431
     12 C          66.7471   93.9979   13.4277 C.3     1  UNL1        0.0733
     13 N          66.4257   94.7082   12.1464 N.3     1  UNL1       -0.2969
     14 C          65.5408   94.2560   11.0228 C.3     1  UNL1        0.0733
     15 C          64.7588   92.9816   10.9031 C.3     1  UNL1        0.0431
     16 H          67.3329   94.8684   11.7085 H       1  UNL1        0.1233
     17 S          61.8820   88.0161   10.7402 S.O2    1  UNL1        0.0289
     18 O          62.3743   86.5992   10.7250 O.2     1  UNL1       -0.1642
     19 O          61.3896   89.4329   10.7553 O.2     1  UNL1       -0.1642
     20 C          61.0446   87.7381    9.5271 C.ar    1  UNL1        0.1103
     21 C          60.2820   88.8508    8.8711 C.ar    1  UNL1        0.0187
     22 C          59.4447   88.5728    7.6580 C.ar    1  UNL1        0.0013
     23 C          59.3699   87.1821    7.1009 C.ar    1  UNL1        0.0001
     24 C          60.1325   86.0694    7.7568 C.ar    1  UNL1        0.0013
     25 C          60.9699   86.3474    8.9700 C.ar    1  UNL1        0.0187
@<TRIPOS>BOND
     1     1     2    1
     2     2     3   ar
     3     3     4   ar
     4     4    17    1
     5    17    18    2
     6    17    19    2
     7    17    20    1
     8    20    21   ar
     9    21    22   ar
    10    22    23   ar
    11    23    24   ar
    12    24    25   ar
    13     4     5   ar
    14     5     6   ar
    15     6     7   ar
    16     7     8   ar
    17     8     9   ar
    18     9    10   ar
    19     8    11    1
    20    11    12    1
    21    12    13    1
    22    13    14    1
    23    14    15    1
    24    10     2   ar
    25    25    20   ar
    26    10     5   ar
    27    15     7    1
    28    13    16    1
