@<TRIPOS>MOLECULE
*****
 53 60 0 0 0
SMALL
GASTEIGER

@<TRIPOS>ATOM
      1 C          61.6205   86.2368   11.5134 C.ar    1  UNL1        0.2075
      2 N          60.8882   87.2460   12.3472 N.ar    1  UNL1       -0.1074
      3 N          60.2233   88.2192   11.4193 N.ar    1  UNL1       -0.0406
      4 N          60.5447   87.8113   10.0120 N.ar    1  UNL1       -0.1285
      5 N          61.4082   86.5861   10.0701 N.ar    1  UNL1       -0.1253
      6 C          64.0309   82.7696   13.0687 C.ar    1  UNL1        0.1736
      7 C          64.4504   84.1752   13.3820 C.ar    1  UNL1        0.0548
      8 C          63.6469   85.3309   12.8636 C.ar    1  UNL1        0.0569
      9 C          62.4239   85.0810   12.0318 C.ar    1  UNL1        0.0560
     10 C          62.0044   83.6754   11.7185 C.ar    1  UNL1        0.0444
     11 C          62.8078   82.5197   12.2369 C.ar    1  UNL1        0.1726
     12 N          64.0664   86.7366   13.1769 N.am    1  UNL1       -0.2777
     13 C          63.8664   87.2890   14.5571 C.2     1  UNL1        0.2843
     14 O          63.2468   86.4358   15.6239 O.2     1  UNL1       -0.2665
     15 H          64.4731   87.2966   12.4767 H       1  UNL1        0.1553
     16 C          64.2859   88.6946   14.8704 C.ar    1  UNL1        0.2017
     17 C          63.4231   89.5582   15.7422 C.ar    1  UNL1        0.0843
     18 C          63.8426   90.9638   16.0555 C.ar    1  UNL1        0.2018
     19 O          62.9799   91.8273   16.9273 O.2     1  UNL1       -0.2864
     20 C          65.1249   91.5059   15.4971 C.ar    1  UNL1        0.0735
     21 C          65.5444   92.9115   15.8104 C.ar    1  UNL1        0.0062
     22 C          66.8267   93.4537   15.2519 C.ar    1  UNL1        0.0003
     23 C          67.6894   92.5902   14.3802 C.ar    1  UNL1        0.0031
     24 C          67.2699   91.1846   14.0668 C.ar    1  UNL1        0.0376
     25 C          65.9876   90.6425   14.6253 C.ar    1  UNL1        0.1485
     26 O          65.5682   89.2368   14.3119 O.2     1  UNL1       -0.4487
     27 C          64.1401   80.4236   14.1797 C.3     1  UNL1        0.2526
     28 O          64.8343   81.6139   13.5871 O.3     1  UNL1       -0.4683
     29 O          62.3883   81.1140   11.9236 O.3     1  UNL1       -0.4684
     30 C          62.8874   80.4423   10.6788 C.3     1  UNL1        0.2526
     31 C          60.0837   88.5066    8.7654 C.ar    1  UNL1        0.1045
     32 C          59.1666   87.8028    7.8096 C.ar    1  UNL1        0.0206
     33 C          58.7055   88.4980    6.5630 C.ar    1  UNL1       -0.0026
     34 C          59.1615   89.8971    6.2722 C.ar    1  UNL1       -0.0207
     35 C          60.0786   90.6010    7.2281 C.ar    1  UNL1       -0.0026
     36 C          60.5396   89.9057    8.4747 C.ar    1  UNL1        0.0206
     37 C          58.7005   90.5925    5.0257 C.3     1  UNL1        0.0437
     38 C          59.1389   91.9995    4.7460 C.3     1  UNL1        0.0771
     39 N          60.0657   92.2827    3.6010 N.3     1  UNL1       -0.2683
     40 C          61.5190   91.9270    3.7069 C.3     1  UNL1        0.0771
     41 C          62.4457   92.2103    2.5619 C.3     1  UNL1        0.0434
     42 C          61.9191   92.8492    1.3111 C.ar    1  UNL1       -0.0220
     43 C          62.8459   93.1324    0.1662 C.ar    1  UNL1        0.0131
     44 C          62.3193   93.7713   -1.0846 C.ar    1  UNL1        0.0652
     45 C          60.8660   94.1270   -1.1904 C.ar    1  UNL1        0.0173
     46 C          59.9391   93.8438   -0.0454 C.ar    1  UNL1       -0.0017
     47 C          60.4657   93.2049    1.2053 C.ar    1  UNL1       -0.0100
     48 C          59.5390   92.9217    2.3502 C.3     1  UNL1        0.0989
     49 N          63.2460   94.0546   -2.2296 N.ar    1  UNL1       -0.2864
     50 C          63.4515   93.1840   -3.4337 C.ar    1  UNL1        0.1022
     51 C          64.4624   93.8495   -4.3198 C.ar    1  UNL1        0.1196
     52 N          64.8818   95.1313   -3.6633 N.ar    1  UNL1       -0.2220
     53 C          64.1300   95.2581   -2.3715 C.ar    1  UNL1        0.1828
@<TRIPOS>BOND
     1    27    28    1
     2    28     6    1
     3     6     7   ar
     4     7     8   ar
     5     8    12    1
     6    12    13   am
     7    13    14    2
     8    13    16    1
     9    16    17   ar
    10    17    18   ar
    11    18    19    2
    12    18    20   ar
    13    20    21   ar
    14    21    22   ar
    15    22    23   ar
    16    23    24   ar
    17    24    25   ar
    18    25    26   ar
    19     8     9   ar
    20     9     1    1
    21     1     2   ar
    22     2     3   ar
    23     3     4   ar
    24     4    31    1
    25    31    32   ar
    26    32    33   ar
    27    33    34   ar
    28    34    37    1
    29    37    38    1
    30    38    39    1
    31    39    40    1
    32    40    41    1
    33    41    42    1
    34    42    43   ar
    35    43    44   ar
    36    44    49    1
    37    49    50   ar
    38    50    51   ar
    39    51    52   ar
    40    52    53   ar
    41    44    45   ar
    42    45    46   ar
    43    46    47   ar
    44    47    48    1
    45    34    35   ar
    46    35    36   ar
    47     4     5   ar
    48     9    10   ar
    49    10    11   ar
    50    11    29    1
    51    29    30    1
    52    11     6   ar
    53    26    16   ar
    54     5     1   ar
    55    25    20   ar
    56    36    31   ar
    57    48    39    1
    58    47    42   ar
    59    53    49   ar
    60    12    15    1
@<TRIPOS>MOLECULE
*****
 53 60 0 0 0
SMALL
GASTEIGER

@<TRIPOS>ATOM
      1 C          62.1982   89.2020   10.8957 C.ar    1  UNL1        0.2075
      2 N          61.4824   87.8959   10.7185 N.ar    1  UNL1       -0.1074
      3 N          60.6704   87.9792    9.4600 N.ar    1  UNL1       -0.0406
      4 N          60.8845   89.3370    8.8594 N.ar    1  UNL1       -0.1285
      5 N          61.8287   90.0928    9.7467 N.ar    1  UNL1       -0.1253
      6 C          64.9680   90.2624   14.2801 C.ar    1  UNL1        0.1736
      7 C          64.5722   88.8333   14.0545 C.ar    1  UNL1        0.0548
      8 C          63.6489   88.4799   12.9264 C.ar    1  UNL1        0.0569
      9 C          63.1215   89.5555   12.0238 C.ar    1  UNL1        0.0560
     10 C          63.5173   90.9847   12.2493 C.ar    1  UNL1        0.0444
     11 C          64.4405   91.3382   13.3775 C.ar    1  UNL1        0.1726
     12 N          63.2531   87.0507   12.7009 N.am    1  UNL1       -0.2777
     13 C          63.8712   85.9619   13.5271 C.2     1  UNL1        0.2843
     14 O          64.8851   86.3024   14.5789 O.2     1  UNL1       -0.2665
     15 H          62.5877   86.8273   12.0106 H       1  UNL1        0.1553
     16 C          63.4754   84.5328   13.3016 C.ar    1  UNL1        0.2017
     17 C          62.8024   83.7592   14.3964 C.ar    1  UNL1        0.0843
     18 C          62.4066   82.3301   14.1709 C.ar    1  UNL1        0.2018
     19 O          61.7336   81.5566   15.2657 O.2     1  UNL1       -0.2864
     20 C          62.6838   81.6745   12.8505 C.ar    1  UNL1        0.0735
     21 C          62.2880   80.2454   12.6250 C.ar    1  UNL1        0.0062
     22 C          62.5652   79.5898   11.3046 C.ar    1  UNL1        0.0003
     23 C          63.2381   80.3633   10.2098 C.ar    1  UNL1        0.0031
     24 C          63.6339   81.7924   10.4354 C.ar    1  UNL1        0.0376
     25 C          63.3568   82.4480   11.7557 C.ar    1  UNL1        0.1485
     26 O          63.7526   83.8772   11.9812 O.2     1  UNL1       -0.4487
     27 C          67.2167   91.2563   15.1201 C.3     1  UNL1        0.2526
     28 O          65.8912   90.6159   15.4082 O.3     1  UNL1       -0.4683
     29 O          64.8363   92.7673   13.6030 O.3     1  UNL1       -0.4684
     30 C          65.8384   93.4198   12.6974 C.3     1  UNL1        0.2526
     31 C          60.2634   89.8491    7.5937 C.ar    1  UNL1        0.1045
     32 C          61.1103   90.5489    6.5724 C.ar    1  UNL1        0.0206
     33 C          60.4892   91.0610    5.3067 C.ar    1  UNL1       -0.0026
     34 C          59.0212   90.8734    5.0623 C.ar    1  UNL1       -0.0207
     35 C          58.1743   90.1736    6.0837 C.ar    1  UNL1       -0.0026
     36 C          58.7954   89.6614    7.3493 C.ar    1  UNL1        0.0206
     37 C          58.4000   91.3855    3.7967 C.3     1  UNL1        0.0437
     38 C          58.7621   92.7467    3.2809 C.3     1  UNL1        0.0771
     39 N          59.7820   92.8886    2.1903 N.3     1  UNL1       -0.2683
     40 C          61.2433   92.7815    2.5114 C.3     1  UNL1        0.0771
     41 C          62.2632   92.9235    1.4207 C.3     1  UNL1        0.0434
     42 C          61.8218   93.1725    0.0089 C.ar    1  UNL1       -0.0220
     43 C          62.8419   93.3145   -1.0817 C.ar    1  UNL1        0.0131
     44 C          62.4005   93.5635   -2.4935 C.ar    1  UNL1        0.0652
     45 C          60.9392   93.6706   -2.8147 C.ar    1  UNL1        0.0173
     46 C          59.9192   93.5287   -1.7240 C.ar    1  UNL1       -0.0017
     47 C          60.3605   93.2796   -0.3122 C.ar    1  UNL1       -0.0100
     48 C          59.3406   93.1377    0.7784 C.3     1  UNL1        0.0989
     49 N          63.4204   93.7055   -3.5842 N.ar    1  UNL1       -0.2864
     50 C          63.9438   94.9970   -4.1392 C.ar    1  UNL1        0.1022
     51 C          64.9429   94.6706   -5.2094 C.ar    1  UNL1        0.1196
     52 N          65.0370   93.1774   -5.3158 N.ar    1  UNL1       -0.2220
     53 C          64.0960   92.5808   -4.3114 C.ar    1  UNL1        0.1828
@<TRIPOS>BOND
     1    27    28    1
     2    28     6    1
     3     6     7   ar
     4     7     8   ar
     5     8    12    1
     6    12    13   am
     7    13    14    2
     8    13    16    1
     9    16    17   ar
    10    17    18   ar
    11    18    19    2
    12    18    20   ar
    13    20    21   ar
    14    21    22   ar
    15    22    23   ar
    16    23    24   ar
    17    24    25   ar
    18    25    26   ar
    19     8     9   ar
    20     9     1    1
    21     1     2   ar
    22     2     3   ar
    23     3     4   ar
    24     4    31    1
    25    31    32   ar
    26    32    33   ar
    27    33    34   ar
    28    34    37    1
    29    37    38    1
    30    38    39    1
    31    39    40    1
    32    40    41    1
    33    41    42    1
    34    42    43   ar
    35    43    44   ar
    36    44    49    1
    37    49    50   ar
    38    50    51   ar
    39    51    52   ar
    40    52    53   ar
    41    44    45   ar
    42    45    46   ar
    43    46    47   ar
    44    47    48    1
    45    34    35   ar
    46    35    36   ar
    47     4     5   ar
    48     9    10   ar
    49    10    11   ar
    50    11    29    1
    51    29    30    1
    52    11     6   ar
    53    26    16   ar
    54     5     1   ar
    55    25    20   ar
    56    36    31   ar
    57    48    39    1
    58    47    42   ar
    59    53    49   ar
    60    12    15    1
@<TRIPOS>MOLECULE
*****
 53 60 0 0 0
SMALL
GASTEIGER

@<TRIPOS>ATOM
      1 C          61.2814   87.0224   11.4328 C.ar    1  UNL1        0.2075
      2 N          60.3253   87.9703   12.0941 N.ar    1  UNL1       -0.1074
      3 N          59.7487   88.8615   11.0343 N.ar    1  UNL1       -0.0406
      4 N          60.3484   88.4644    9.7180 N.ar    1  UNL1       -0.1285
      5 N          61.2957   87.3277    9.9642 N.ar    1  UNL1       -0.1253
      6 C          63.6850   83.8240   13.4929 C.ar    1  UNL1        0.1736
      7 C          64.2090   85.2277   13.4225 C.ar    1  UNL1        0.0548
      8 C          63.4078   86.2939   12.7358 C.ar    1  UNL1        0.0569
      9 C          62.0826   85.9563   12.1195 C.ar    1  UNL1        0.0560
     10 C          61.5585   84.5525   12.1898 C.ar    1  UNL1        0.0444
     11 C          62.3597   83.4864   12.8765 C.ar    1  UNL1        0.1726
     12 N          63.9318   87.6976   12.6655 N.am    1  UNL1       -0.2777
     13 C          64.1329   88.4871   13.9250 C.2     1  UNL1        0.2843
     14 O          63.8100   87.8728   15.2548 O.2     1  UNL1       -0.2665
     15 H          64.1437   88.1007   11.7927 H       1  UNL1        0.1553
     16 C          64.6569   89.8908   13.8547 C.ar    1  UNL1        0.2017
     17 C          65.1517   90.5698   15.0973 C.ar    1  UNL1        0.0843
     18 C          65.6757   91.9735   15.0270 C.ar    1  UNL1        0.2018
     19 O          66.1704   92.6525   16.2696 O.2     1  UNL1       -0.2864
     20 C          65.7049   92.6983   13.7140 C.ar    1  UNL1        0.0735
     21 C          66.2289   94.1020   13.6437 C.ar    1  UNL1        0.0062
     22 C          66.2581   94.8267   12.3307 C.ar    1  UNL1        0.0003
     23 C          65.7634   94.1477   11.0881 C.ar    1  UNL1        0.0031
     24 C          65.2394   92.7440   11.1584 C.ar    1  UNL1        0.0376
     25 C          65.2102   92.0193   12.4714 C.ar    1  UNL1        0.1485
     26 O          64.6861   90.6155   12.5417 O.2     1  UNL1       -0.4487
     27 C          64.5620   82.7244   15.6772 C.3     1  UNL1        0.2526
     28 O          64.4861   82.7579   14.1795 O.3     1  UNL1       -0.4683
     29 O          61.8357   82.0827   12.9469 O.3     1  UNL1       -0.4684
     30 C          62.6071   80.9617   12.3157 C.3     1  UNL1        0.2526
     31 C          60.0528   89.0935    8.3887 C.ar    1  UNL1        0.1045
     32 C          60.9299   90.1931    7.8677 C.ar    1  UNL1        0.0206
     33 C          60.6343   90.8222    6.5384 C.ar    1  UNL1       -0.0026
     34 C          59.4616   90.3516    5.7303 C.ar    1  UNL1       -0.0207
     35 C          58.5844   89.2520    6.2513 C.ar    1  UNL1       -0.0026
     36 C          58.8801   88.6229    7.5806 C.ar    1  UNL1        0.0206
     37 C          59.1658   90.9806    4.4010 C.3     1  UNL1        0.0437
     38 C          59.6443   92.3714    4.1064 C.3     1  UNL1        0.0771
     39 N          60.2221   92.6966    2.7609 N.3     1  UNL1       -0.2683
     40 C          59.3150   92.8894    1.5819 C.3     1  UNL1        0.0771
     41 C          59.8928   93.2146    0.2364 C.3     1  UNL1        0.0434
     42 C          61.3776   93.3469    0.0699 C.ar    1  UNL1       -0.0220
     43 C          61.9553   93.6720   -1.2757 C.ar    1  UNL1        0.0131
     44 C          63.4402   93.8044   -1.4423 C.ar    1  UNL1        0.0652
     45 C          64.3472   93.6115   -0.2633 C.ar    1  UNL1        0.0173
     46 C          63.7695   93.2863    1.0823 C.ar    1  UNL1       -0.0017
     47 C          62.2847   93.1540    1.2488 C.ar    1  UNL1       -0.0100
     48 C          61.7069   92.8289    2.5944 C.3     1  UNL1        0.0989
     49 N          64.0179   94.1295   -2.7878 N.ar    1  UNL1       -0.2864
     50 C          64.4477   95.4876   -3.2579 C.ar    1  UNL1        0.1022
     51 C          64.9628   95.3512   -4.6601 C.ar    1  UNL1        0.1196
     52 N          64.8514   93.9088   -5.0565 N.ar    1  UNL1       -0.2220
     53 C          64.2674   93.1538   -3.8994 C.ar    1  UNL1        0.1828
@<TRIPOS>BOND
     1    27    28    1
     2    28     6    1
     3     6     7   ar
     4     7     8   ar
     5     8    12    1
     6    12    13   am
     7    13    14    2
     8    13    16    1
     9    16    17   ar
    10    17    18   ar
    11    18    19    2
    12    18    20   ar
    13    20    21   ar
    14    21    22   ar
    15    22    23   ar
    16    23    24   ar
    17    24    25   ar
    18    25    26   ar
    19     8     9   ar
    20     9     1    1
    21     1     2   ar
    22     2     3   ar
    23     3     4   ar
    24     4    31    1
    25    31    32   ar
    26    32    33   ar
    27    33    34   ar
    28    34    37    1
    29    37    38    1
    30    38    39    1
    31    39    40    1
    32    40    41    1
    33    41    42    1
    34    42    43   ar
    35    43    44   ar
    36    44    49    1
    37    49    50   ar
    38    50    51   ar
    39    51    52   ar
    40    52    53   ar
    41    44    45   ar
    42    45    46   ar
    43    46    47   ar
    44    47    48    1
    45    34    35   ar
    46    35    36   ar
    47     4     5   ar
    48     9    10   ar
    49    10    11   ar
    50    11    29    1
    51    29    30    1
    52    11     6   ar
    53    26    16   ar
    54     5     1   ar
    55    25    20   ar
    56    36    31   ar
    57    48    39    1
    58    47    42   ar
    59    53    49   ar
    60    12    15    1
@<TRIPOS>MOLECULE
*****
 53 60 0 0 0
SMALL
GASTEIGER

@<TRIPOS>ATOM
      1 C          62.1949   89.2418   10.7546 C.ar    1  UNL1        0.2075
      2 N          61.5013   87.9317   10.5253 N.ar    1  UNL1       -0.1074
      3 N          60.7218   88.0371    9.2481 N.ar    1  UNL1       -0.0406
      4 N          60.9336   89.4124    8.6880 N.ar    1  UNL1       -0.1285
      5 N          61.8440   90.1570    9.6190 N.ar    1  UNL1       -0.1253
      6 C          64.8601   90.2499   14.2374 C.ar    1  UNL1        0.1736
      7 C          64.5076   88.8202   13.9520 C.ar    1  UNL1        0.0548
      8 C          63.6192   88.4841   12.7910 C.ar    1  UNL1        0.0569
      9 C          63.0833   89.5779   11.9155 C.ar    1  UNL1        0.0560
     10 C          63.4358   91.0077   12.2010 C.ar    1  UNL1        0.0444
     11 C          64.3242   91.3437   13.3619 C.ar    1  UNL1        0.1726
     12 N          63.2667   87.0544   12.5056 N.am    1  UNL1       -0.2777
     13 C          63.9048   85.9520   13.2978 C.2     1  UNL1        0.2843
     14 O          64.8955   86.2795   14.3755 O.2     1  UNL1       -0.2665
     15 H          62.6165   86.8395   11.7982 H       1  UNL1        0.1553
     16 C          63.5523   84.5223   13.0124 C.ar    1  UNL1        0.2017
     17 C          64.1172   83.8376   11.8031 C.ar    1  UNL1        0.0843
     18 C          63.7647   82.4078   11.5177 C.ar    1  UNL1        0.2018
     19 O          64.3295   81.7232   10.3085 O.2     1  UNL1       -0.2864
     20 C          62.8473   81.6627   12.4414 C.ar    1  UNL1        0.0735
     21 C          62.4948   80.2330   12.1559 C.ar    1  UNL1        0.0062
     22 C          61.5775   79.4878   13.0797 C.ar    1  UNL1        0.0003
     23 C          61.0127   80.1725   14.2889 C.ar    1  UNL1        0.0031
     24 C          61.3652   81.6022   14.5744 C.ar    1  UNL1        0.0376
     25 C          62.2825   82.3473   13.6506 C.ar    1  UNL1        0.1485
     26 O          62.6350   83.7772   13.9361 O.2     1  UNL1       -0.4487
     27 C          67.0680   91.2593   15.1628 C.3     1  UNL1        0.2526
     28 O          65.7485   90.5859   15.3984 O.3     1  UNL1       -0.4683
     29 O          64.6767   92.7735   13.6474 O.3     1  UNL1       -0.4684
     30 C          65.8059   93.4292   12.9092 C.3     1  UNL1        0.2526
     31 C          60.3394   89.9489    7.4195 C.ar    1  UNL1        0.1045
     32 C          58.8702   89.7984    7.1572 C.ar    1  UNL1        0.0206
     33 C          58.2759   90.3349    5.8887 C.ar    1  UNL1       -0.0026
     34 C          59.1509   91.0220    4.8826 C.ar    1  UNL1       -0.0207
     35 C          60.6201   91.1725    5.1449 C.ar    1  UNL1       -0.0026
     36 C          61.2144   90.6360    6.4134 C.ar    1  UNL1        0.0206
     37 C          58.5568   91.5586    3.6141 C.3     1  UNL1        0.0437
     38 C          59.0049   92.8864    3.0791 C.3     1  UNL1        0.0771
     39 N          59.7298   92.9608    1.7680 N.3     1  UNL1       -0.2683
     40 C          59.0052   92.6503    0.4918 C.3     1  UNL1        0.0771
     41 C          59.7301   92.7247   -0.8193 C.3     1  UNL1        0.0434
     42 C          61.1795   93.1096   -0.8543 C.ar    1  UNL1       -0.0220
     43 C          61.9042   93.1840   -2.1655 C.ar    1  UNL1        0.0131
     44 C          63.3536   93.5690   -2.2004 C.ar    1  UNL1        0.0652
     45 C          64.0781   93.8795   -0.9243 C.ar    1  UNL1        0.0173
     46 C          63.3532   93.8051    0.3870 C.ar    1  UNL1       -0.0017
     47 C          61.9040   93.4202    0.4219 C.ar    1  UNL1       -0.0100
     48 C          61.1791   93.3457    1.7330 C.3     1  UNL1        0.0989
     49 N          64.0784   93.6434   -3.5115 N.ar    1  UNL1       -0.2864
     50 C          64.4495   92.4789   -4.3812 C.ar    1  UNL1        0.1022
     51 C          65.1599   93.0111   -5.5903 C.ar    1  UNL1        0.1196
     52 N          65.2278   94.5045   -5.4680 N.ar    1  UNL1       -0.2220
     53 C          64.5594   94.8953   -4.1833 C.ar    1  UNL1        0.1828
@<TRIPOS>BOND
     1    27    28    1
     2    28     6    1
     3     6     7   ar
     4     7     8   ar
     5     8    12    1
     6    12    13   am
     7    13    14    2
     8    13    16    1
     9    16    17   ar
    10    17    18   ar
    11    18    19    2
    12    18    20   ar
    13    20    21   ar
    14    21    22   ar
    15    22    23   ar
    16    23    24   ar
    17    24    25   ar
    18    25    26   ar
    19     8     9   ar
    20     9     1    1
    21     1     2   ar
    22     2     3   ar
    23     3     4   ar
    24     4    31    1
    25    31    32   ar
    26    32    33   ar
    27    33    34   ar
    28    34    37    1
    29    37    38    1
    30    38    39    1
    31    39    40    1
    32    40    41    1
    33    41    42    1
    34    42    43   ar
    35    43    44   ar
    36    44    49    1
    37    49    50   ar
    38    50    51   ar
    39    51    52   ar
    40    52    53   ar
    41    44    45   ar
    42    45    46   ar
    43    46    47   ar
    44    47    48    1
    45    34    35   ar
    46    35    36   ar
    47     4     5   ar
    48     9    10   ar
    49    10    11   ar
    50    11    29    1
    51    29    30    1
    52    11     6   ar
    53    26    16   ar
    54     5     1   ar
    55    25    20   ar
    56    36    31   ar
    57    48    39    1
    58    47    42   ar
    59    53    49   ar
    60    12    15    1
