@<TRIPOS>MOLECULE
*****
 32 35 0 0 0
SMALL
GASTEIGER

@<TRIPOS>ATOM
      1 C          61.8492   87.1199   10.8795 C.ar    1  UNL1        0.1104
      2 C          60.7596   86.7173    9.9304 C.ar    1  UNL1        0.0200
      3 C          60.2127   87.7126    8.9506 C.ar    1  UNL1        0.0160
      4 C          60.7553   89.1107    8.9198 C.ar    1  UNL1        0.0504
      5 C          61.8449   89.5134    9.8688 C.ar    1  UNL1        0.0160
      6 C          62.3919   88.5180   10.8486 C.ar    1  UNL1        0.0200
      7 N          60.2084   90.1061    7.9400 N.am    1  UNL1       -0.2839
      8 C          59.5472   89.6324    6.6796 C.2     1  UNL1        0.2260
      9 O          59.4329   88.1633    6.3991 O.2     1  UNL1       -0.2748
     10 H          60.2834   91.0703    8.1241 H       1  UNL1        0.1549
     11 C          59.0002   90.6278    5.6998 C.3     1  UNL1        0.0812
     12 C          57.8467   91.4200    5.1599 C.3     1  UNL1        0.0143
     13 C          59.2066   91.5596    4.5427 C.3     1  UNL1        0.0330
     14 C          60.1109   92.1782    3.5182 C.ar    1  UNL1       -0.0029
     15 C          61.5900   91.9363    3.5796 C.ar    1  UNL1       -0.0011
     16 C          62.4943   92.5550    2.5551 C.ar    1  UNL1        0.0204
     17 C          61.9195   93.4155    1.4693 C.ar    1  UNL1        0.0989
     18 N          60.4404   93.6574    1.4079 N.ar    1  UNL1       -0.2426
     19 C          59.5361   93.0388    2.4323 C.ar    1  UNL1        0.0946
     20 S          62.3961   86.1245   11.8592 S.O2    1  UNL1        0.0275
     21 O          61.6927   85.0192   11.1290 O.2     1  UNL1       -0.1642
     22 O          63.0996   87.2299   12.5895 O.2     1  UNL1       -0.1642
     23 C          63.1187   82.6849   13.7024 C.ar    1  UNL1        0.1070
     24 C          64.0368   83.1381   14.7986 C.ar    1  UNL1        0.0184
     25 C          64.4081   84.5868   14.9150 C.ar    1  UNL1        0.0026
     26 C          63.8612   85.5823   13.9352 C.ar    1  UNL1        0.0188
     27 C          62.9431   85.1291   12.8391 C.ar    1  UNL1        0.1116
     28 C          62.5718   83.6804   12.7227 C.ar    1  UNL1        0.0371
     29 C          62.3762   79.7876   13.4696 C.3     1  UNL1        0.1816
     30 S          62.7474   81.2363   13.5860 S.O2    1  UNL1        0.0105
     31 O          61.5660   81.4671   14.4810 O.2     1  UNL1       -0.1686
     32 O          63.9289   81.0054   12.6911 O.2     1  UNL1       -0.1686
@<TRIPOS>BOND
     1    29    30    1
     2    30    31    2
     3    30    32    2
     4    30    23    1
     5    23    24   ar
     6    24    25   ar
     7    25    26   ar
     8    26    27   ar
     9    27    20    1
    10    20    21    2
    11    20    22    2
    12    20     1    1
    13     1     2   ar
    14     2     3   ar
    15     3     4   ar
    16     4     7    1
    17     7     8   am
    18     8     9    2
    19    11     8    1
    20    11    12    1
    21    12    13    1
    22    13    14    1
    23    14    15   ar
    24    15    16   ar
    25    16    17   ar
    26    17    18   ar
    27    18    19   ar
    28     4     5   ar
    29     5     6   ar
    30    27    28   ar
    31    28    23   ar
    32     6     1   ar
    33    13    11    1
    34    19    14   ar
    35     7    10    1
@<TRIPOS>MOLECULE
*****
 32 35 0 0 0
SMALL
GASTEIGER

@<TRIPOS>ATOM
      1 C          61.1439   86.7299    9.4036 C.ar    1  UNL1        0.1104
      2 C          60.3895   86.1589    8.2396 C.ar    1  UNL1        0.0200
      3 C          59.6371   87.0687    7.3144 C.ar    1  UNL1        0.0160
      4 C          59.6390   88.5496    7.5532 C.ar    1  UNL1        0.0504
      5 C          60.3933   89.1206    8.7171 C.ar    1  UNL1        0.0160
      6 C          61.1458   88.2108    9.6424 C.ar    1  UNL1        0.0200
      7 N          58.8866   89.4594    6.6280 N.am    1  UNL1       -0.2839
      8 C          59.6340   90.3895    5.7189 C.2     1  UNL1        0.2260
      9 O          61.1338   90.4097    5.7350 O.2     1  UNL1       -0.2748
     10 H          57.9023   89.4462    6.6174 H       1  UNL1        0.1549
     11 C          58.8816   91.2994    4.7937 C.3     1  UNL1        0.0812
     12 C          57.6048   91.9759    4.3912 C.3     1  UNL1        0.0143
     13 C          58.8553   92.1988    3.5935 C.3     1  UNL1        0.0330
     14 C          59.5622   92.8468    2.4401 C.ar    1  UNL1       -0.0029
     15 C          61.0032   93.2425    2.5701 C.ar    1  UNL1       -0.0011
     16 C          61.7101   93.8905    1.4166 C.ar    1  UNL1        0.0204
     17 C          60.9759   94.1429    0.1332 C.ar    1  UNL1        0.0989
     18 N          59.5348   93.7472    0.0032 N.ar    1  UNL1       -0.2426
     19 C          58.8280   93.0992    1.1566 C.ar    1  UNL1        0.0946
     20 S          61.8962   85.8200   10.3288 S.O2    1  UNL1        0.0275
     21 O          62.6579   85.2639    9.1625 O.2     1  UNL1       -0.1642
     22 O          61.1345   86.3762   11.4952 O.2     1  UNL1       -0.1642
     23 C          63.5545   84.3626   13.6267 C.ar    1  UNL1        0.1070
     24 C          64.1535   83.0904   13.1044 C.ar    1  UNL1        0.0184
     25 C          64.0001   82.7281   11.6570 C.ar    1  UNL1        0.0026
     26 C          63.2477   83.6380   10.7318 C.ar    1  UNL1        0.0188
     27 C          62.6487   84.9101   11.2541 C.ar    1  UNL1        0.1116
     28 C          62.8021   85.2724   12.7015 C.ar    1  UNL1        0.0371
     29 C          63.8614   85.0872   16.5217 C.3     1  UNL1        0.1816
     30 S          63.7079   84.7249   15.0742 S.O2    1  UNL1        0.0105
     31 O          63.8717   83.2745   15.4199 O.2     1  UNL1       -0.1686
     32 O          63.5442   86.1753   14.7285 O.2     1  UNL1       -0.1686
@<TRIPOS>BOND
     1    29    30    1
     2    30    31    2
     3    30    32    2
     4    30    23    1
     5    23    24   ar
     6    24    25   ar
     7    25    26   ar
     8    26    27   ar
     9    27    20    1
    10    20    21    2
    11    20    22    2
    12    20     1    1
    13     1     2   ar
    14     2     3   ar
    15     3     4   ar
    16     4     7    1
    17     7     8   am
    18     8     9    2
    19    11     8    1
    20    11    12    1
    21    12    13    1
    22    13    14    1
    23    14    15   ar
    24    15    16   ar
    25    16    17   ar
    26    17    18   ar
    27    18    19   ar
    28     4     5   ar
    29     5     6   ar
    30    27    28   ar
    31    28    23   ar
    32     6     1   ar
    33    13    11    1
    34    19    14   ar
    35     7    10    1
@<TRIPOS>MOLECULE
*****
 32 35 0 0 0
SMALL
GASTEIGER

@<TRIPOS>ATOM
      1 C          63.5682   87.6694   13.3009 C.ar    1  UNL1        0.1104
      2 C          63.0770   88.3430   12.0539 C.ar    1  UNL1        0.0200
      3 C          63.3690   89.7958   11.8214 C.ar    1  UNL1        0.0160
      4 C          64.1523   90.5750   12.8360 C.ar    1  UNL1        0.0504
      5 C          64.6436   89.9015   14.0829 C.ar    1  UNL1        0.0160
      6 C          64.3515   88.4486   14.3154 C.ar    1  UNL1        0.0200
      7 N          64.4443   92.0278   12.6035 N.am    1  UNL1       -0.2839
      8 C          65.8470   92.5420   12.7390 C.2     1  UNL1        0.2260
      9 O          66.9576   91.6032   13.1070 O.2     1  UNL1       -0.2748
     10 H          63.7154   92.6440   12.3620 H       1  UNL1        0.1549
     11 C          66.1390   93.9947   12.5066 C.3     1  UNL1        0.0812
     12 C          66.5137   95.3459   13.0394 C.3     1  UNL1        0.0143
     13 C          66.2701   95.1599   11.5711 C.3     1  UNL1        0.0330
     14 C          66.2052   95.7252   10.1832 C.ar    1  UNL1       -0.0029
     15 C          67.4296   95.7287    9.3167 C.ar    1  UNL1       -0.0011
     16 C          67.3646   96.2940    7.9288 C.ar    1  UNL1        0.0204
     17 C          66.0752   96.8559    7.4075 C.ar    1  UNL1        0.0989
     18 N          64.8508   96.8525    8.2740 N.ar    1  UNL1       -0.2426
     19 C          64.9158   96.2871    9.6618 C.ar    1  UNL1        0.0946
     20 S          63.2762   86.2166   13.5333 S.O2    1  UNL1        0.0275
     21 O          63.8135   86.3319   14.9290 O.2     1  UNL1       -0.1642
     22 O          62.7389   86.1013   12.1377 O.2     1  UNL1       -0.1642
     23 C          62.8060   82.3327   12.8669 C.ar    1  UNL1        0.1070
     24 C          62.4002   81.8581   14.2307 C.ar    1  UNL1        0.0184
     25 C          62.2864   82.8364   15.3621 C.ar    1  UNL1        0.0026
     26 C          62.5784   84.2892   15.1297 C.ar    1  UNL1        0.0188
     27 C          62.9842   84.7637   13.7658 C.ar    1  UNL1        0.1116
     28 C          63.0980   83.7855   12.6344 C.ar    1  UNL1        0.0371
     29 C          63.0335   80.3762   10.6041 C.3     1  UNL1        0.1816
     30 S          62.9197   81.3544   11.7355 S.O2    1  UNL1        0.0105
     31 O          62.5165   80.2417   12.6570 O.2     1  UNL1       -0.1686
     32 O          63.3229   82.4672   10.8139 O.2     1  UNL1       -0.1686
@<TRIPOS>BOND
     1    29    30    1
     2    30    31    2
     3    30    32    2
     4    30    23    1
     5    23    24   ar
     6    24    25   ar
     7    25    26   ar
     8    26    27   ar
     9    27    20    1
    10    20    21    2
    11    20    22    2
    12    20     1    1
    13     1     2   ar
    14     2     3   ar
    15     3     4   ar
    16     4     7    1
    17     7     8   am
    18     8     9    2
    19    11     8    1
    20    11    12    1
    21    12    13    1
    22    13    14    1
    23    14    15   ar
    24    15    16   ar
    25    16    17   ar
    26    17    18   ar
    27    18    19   ar
    28     4     5   ar
    29     5     6   ar
    30    27    28   ar
    31    28    23   ar
    32     6     1   ar
    33    13    11    1
    34    19    14   ar
    35     7    10    1
@<TRIPOS>MOLECULE
*****
 32 35 0 0 0
SMALL
GASTEIGER

@<TRIPOS>ATOM
      1 C          65.0758   91.6119   13.0342 C.ar    1  UNL1        0.1104
      2 C          63.9659   90.8111   12.4203 C.ar    1  UNL1        0.0200
      3 C          63.5625   89.5001   13.0274 C.ar    1  UNL1        0.0160
      4 C          64.2689   88.9899   14.2482 C.ar    1  UNL1        0.0504
      5 C          65.3788   89.7906   14.8621 C.ar    1  UNL1        0.0160
      6 C          65.7823   91.1017   14.2551 C.ar    1  UNL1        0.0200
      7 N          63.8655   87.6789   14.8553 N.am    1  UNL1       -0.2839
      8 C          63.4139   86.5518   13.9744 C.2     1  UNL1        0.2260
      9 O          63.3658   86.7358   12.4865 O.2     1  UNL1       -0.2748
     10 H          63.8971   87.5581   15.8318 H       1  UNL1        0.1549
     11 C          63.0104   85.2408   14.5814 C.3     1  UNL1        0.0812
     12 C          62.5670   84.4417   15.7708 C.3     1  UNL1        0.0143
     13 C          62.7551   83.7692   14.4433 C.3     1  UNL1        0.0330
     14 C          62.7164   82.5313   13.5972 C.ar    1  UNL1       -0.0029
     15 C          63.1403   82.5918   12.1596 C.ar    1  UNL1       -0.0011
     16 C          63.1015   81.3538   11.3134 C.ar    1  UNL1        0.0204
     17 C          62.6389   80.0553   11.9049 C.ar    1  UNL1        0.0989
     18 N          62.2151   79.9948   13.3425 N.ar    1  UNL1       -0.2426
     19 C          62.2538   81.2327   14.1886 C.ar    1  UNL1        0.0946
     20 S          65.4793   92.9229   12.4272 S.O2    1  UNL1        0.0275
     21 O          65.8702   93.4306   13.7834 O.2     1  UNL1       -0.1642
     22 O          65.0884   92.4152   11.0710 O.2     1  UNL1       -0.1642
     23 C          66.2230   95.7342    9.7265 C.ar    1  UNL1        0.1070
     24 C          66.6896   96.8559   10.6062 C.ar    1  UNL1        0.0184
     25 C          66.7529   96.6667   12.0928 C.ar    1  UNL1        0.0026
     26 C          66.3494   95.3557   12.6999 C.ar    1  UNL1        0.0188
     27 C          65.8828   94.2340   11.8202 C.ar    1  UNL1        0.1116
     28 C          65.8195   94.4232   10.3335 C.ar    1  UNL1        0.0371
     29 C          66.0965   96.1126    6.7532 C.3     1  UNL1        0.1816
     30 S          66.1598   95.9234    8.2398 S.O2    1  UNL1        0.0105
     31 O          67.3226   94.9909    8.0717 O.2     1  UNL1       -0.1686
     32 O          64.9969   96.8559    8.4080 O.2     1  UNL1       -0.1686
@<TRIPOS>BOND
     1    29    30    1
     2    30    31    2
     3    30    32    2
     4    30    23    1
     5    23    24   ar
     6    24    25   ar
     7    25    26   ar
     8    26    27   ar
     9    27    20    1
    10    20    21    2
    11    20    22    2
    12    20     1    1
    13     1     2   ar
    14     2     3   ar
    15     3     4   ar
    16     4     7    1
    17     7     8   am
    18     8     9    2
    19    11     8    1
    20    11    12    1
    21    12    13    1
    22    13    14    1
    23    14    15   ar
    24    15    16   ar
    25    16    17   ar
    26    17    18   ar
    27    18    19   ar
    28     4     5   ar
    29     5     6   ar
    30    27    28   ar
    31    28    23   ar
    32     6     1   ar
    33    13    11    1
    34    19    14   ar
    35     7    10    1
