@<TRIPOS>MOLECULE
*****
 27 29 0 0 0
SMALL
GASTEIGER

@<TRIPOS>ATOM
      1 C          63.9147   86.8893   14.4112 C.ar    1  UNL1        0.1719
      2 N          63.7513   86.3496   13.0212 N.ar    1  UNL1       -0.2210
      3 C          63.3326   84.9132   13.1279 C.ar    1  UNL1        0.1014
      4 C          63.0259   83.8772   12.0874 C.ar    1  UNL1        0.0503
      5 C          62.6238   82.4931   12.5028 C.ar    1  UNL1        0.1417
      6 F          62.3171   81.4571   11.4623 F       1  UNL1       -0.2041
      7 C          62.5284   82.1450   13.9587 C.ar    1  UNL1        0.0312
      8 C          62.8351   83.1810   14.9992 C.ar    1  UNL1        0.0211
      9 C          63.2372   84.5651   14.5838 C.ar    1  UNL1        0.0797
     10 N          63.5970   85.7864   15.3769 N.ar    1  UNL1       -0.3011
     11 S          64.3239   88.2865   14.7721 S.3     1  UNL1       -0.0724
     12 C          63.4308   89.4418   14.4293 C.3     1  UNL1        0.0943
     13 C          62.9251   90.0110   11.9453 C.ar    1  UNL1        0.1355
     14 C          63.1971   90.8312   10.7192 C.ar    1  UNL1        0.0367
     15 C          64.2465   91.9024   10.7510 C.ar    1  UNL1        0.0059
     16 C          65.0242   92.1534   12.0089 C.ar    1  UNL1        0.0346
     17 C          64.7522   91.3333   13.2350 C.ar    1  UNL1        0.0024
     18 C          63.7027   90.2620   13.2032 C.ar    1  UNL1        0.0232
     19 C          66.0736   93.2247   12.0407 C.2     1  UNL1        0.1735
     20 C          65.9702   94.4036   11.1190 C.3     1  UNL1        0.0773
     21 O          67.2266   93.1170   12.9942 O.2     1  UNL1       -0.2913
     22 C          61.7194   88.0787   10.6952 C.3     1  UNL1        0.2525
     23 O          61.8757   88.9398   11.9135 O.3     1  UNL1       -0.4717
     24 C          63.6327   85.8870   16.8731 C.3     1  UNL1        0.1496
     25 C          62.4308   86.3840   17.6203 C.2     1  UNL1        0.0733
     26 O          62.5955   87.0143   18.9715 O.co2   1  UNL1       -0.5472
     27 O          61.0642   86.2507   17.0165 O.co2   1  UNL1       -0.5472
@<TRIPOS>UNITY_ATOM_ATTR
26 1
charge -1
@<TRIPOS>BOND
     1    22    23    1
     2    23    13    1
     3    13    14   ar
     4    14    15   ar
     5    15    16   ar
     6    16    19    1
     7    19    20    1
     8    19    21    2
     9    16    17   ar
    10    17    18   ar
    11    18    12    1
    12    12    11    1
    13    11     1    1
    14     1     2   ar
    15     2     3   ar
    16     3     4   ar
    17     4     5   ar
    18     5     6    1
    19     5     7   ar
    20     7     8   ar
    21     8     9   ar
    22     9    10   ar
    23    10    24    1
    24    24    25    1
    25    25    26   ar
    26    25    27   ar
    27    18    13   ar
    28    10     1   ar
    29     9     3   ar
@<TRIPOS>MOLECULE
*****
 27 29 0 0 0
SMALL
GASTEIGER

@<TRIPOS>ATOM
      1 C          62.5644   87.6151   11.2443 C.ar    1  UNL1        0.1719
      2 N          63.0128   87.1188   12.5869 N.ar    1  UNL1       -0.2210
      3 C          63.0733   85.6210   12.5310 C.ar    1  UNL1        0.1014
      4 C          63.4495   84.5927   13.5561 C.ar    1  UNL1        0.0503
      5 C          63.4147   83.1351   13.2041 C.ar    1  UNL1        0.1417
      6 F          63.7909   82.1067   14.2293 F       1  UNL1       -0.2041
      7 C          63.0036   82.7057   11.8269 C.ar    1  UNL1        0.0312
      8 C          62.6274   83.7340   10.8017 C.ar    1  UNL1        0.0211
      9 C          62.6622   85.1917   11.1538 C.ar    1  UNL1        0.0797
     10 N          62.3477   86.4241   10.3586 N.ar    1  UNL1       -0.3011
     11 S          62.3673   89.0504   10.8557 S.3     1  UNL1       -0.0724
     12 C          62.2026   90.0987   11.9158 C.3     1  UNL1        0.0943
     13 C          63.6922   90.5598   13.9940 C.ar    1  UNL1        0.1355
     14 C          64.9008   91.2002   14.6096 C.ar    1  UNL1        0.0367
     15 C          65.8285   92.0200   13.7628 C.ar    1  UNL1        0.0059
     16 C          65.5477   92.1994   12.3002 C.ar    1  UNL1        0.0346
     17 C          64.3390   91.5589   11.6846 C.ar    1  UNL1        0.0024
     18 C          63.4113   90.7391   12.5315 C.ar    1  UNL1        0.0232
     19 C          66.4754   93.0192   11.4534 C.2     1  UNL1        0.1735
     20 C          67.2501   92.3699   10.3450 C.3     1  UNL1        0.0773
     21 O          66.6286   94.4883   11.7148 O.2     1  UNL1       -0.2913
     22 C          63.1424   89.3969   16.2513 C.3     1  UNL1        0.2525
     23 O          62.7644   89.7400   14.8408 O.3     1  UNL1       -0.4717
     24 C          61.8959   86.4592    8.9287 C.3     1  UNL1        0.1496
     25 C          60.4321   86.5129    8.6058 C.2     1  UNL1        0.0733
     26 O          59.5106   87.3536    9.4390 O.co2   1  UNL1       -0.5472
     27 O          59.8897   85.7260    7.4496 O.co2   1  UNL1       -0.5472
@<TRIPOS>UNITY_ATOM_ATTR
26 1
charge -1
@<TRIPOS>BOND
     1    22    23    1
     2    23    13    1
     3    13    14   ar
     4    14    15   ar
     5    15    16   ar
     6    16    19    1
     7    19    20    1
     8    19    21    2
     9    16    17   ar
    10    17    18   ar
    11    18    12    1
    12    12    11    1
    13    11     1    1
    14     1     2   ar
    15     2     3   ar
    16     3     4   ar
    17     4     5   ar
    18     5     6    1
    19     5     7   ar
    20     7     8   ar
    21     8     9   ar
    22     9    10   ar
    23    10    24    1
    24    24    25    1
    25    25    26   ar
    26    25    27   ar
    27    18    13   ar
    28    10     1   ar
    29     9     3   ar
@<TRIPOS>MOLECULE
*****
 27 29 0 0 0
SMALL
GASTEIGER

@<TRIPOS>ATOM
      1 C          64.0256   91.4554   11.4576 C.ar    1  UNL1        0.1719
      2 N          63.9279   90.9405   12.8631 N.ar    1  UNL1       -0.2210
      3 C          64.9520   91.6578   13.6918 C.ar    1  UNL1        0.1014
      4 C          65.3136   91.5621   15.1444 C.ar    1  UNL1        0.0503
      5 C          66.4059   92.4247   15.7037 C.ar    1  UNL1        0.1417
      6 F          66.7675   92.3291   17.1563 F       1  UNL1       -0.2041
      7 C          67.1365   93.3829   14.8104 C.ar    1  UNL1        0.0312
      8 C          66.7749   93.4786   13.3578 C.ar    1  UNL1        0.0211
      9 C          65.6827   92.6160   12.7985 C.ar    1  UNL1        0.0797
     10 N          65.1101   92.4909   11.4177 N.ar    1  UNL1       -0.3011
     11 S          63.1862   91.0126   10.2960 S.3     1  UNL1       -0.0724
     12 C          61.8386   90.3988   10.5353 C.3     1  UNL1        0.0943
     13 C          60.7733   88.3881    9.2816 C.ar    1  UNL1        0.1355
     14 C          60.5842   86.9085    9.1233 C.ar    1  UNL1        0.0367
     15 C          61.2716   85.9600   10.0603 C.ar    1  UNL1        0.0059
     16 C          62.1480   86.4912   11.1557 C.ar    1  UNL1        0.0346
     17 C          62.3370   87.9708   11.3141 C.ar    1  UNL1        0.0024
     18 C          61.6496   88.9192   10.3770 C.ar    1  UNL1        0.0232
     19 C          62.8353   85.5428   12.0927 C.2     1  UNL1        0.1735
     20 C          62.8924   84.0790   11.7698 C.3     1  UNL1        0.0773
     21 O          63.4655   86.0580   13.3526 O.2     1  UNL1       -0.2913
     22 C          59.3016   88.8052    7.1816 C.3     1  UNL1        0.2525
     23 O          60.0859   89.3365    8.3446 O.3     1  UNL1       -0.4717
     24 C          65.5456   93.2654   10.2092 C.3     1  UNL1        0.1496
     25 C          67.0061   93.4263    9.9077 C.2     1  UNL1        0.0733
     26 O          67.8386   92.2256    9.5681 O.co2   1  UNL1       -0.5472
     27 O          67.6343   94.7879    9.9458 O.co2   1  UNL1       -0.5472
@<TRIPOS>UNITY_ATOM_ATTR
26 1
charge -1
@<TRIPOS>BOND
     1    22    23    1
     2    23    13    1
     3    13    14   ar
     4    14    15   ar
     5    15    16   ar
     6    16    19    1
     7    19    20    1
     8    19    21    2
     9    16    17   ar
    10    17    18   ar
    11    18    12    1
    12    12    11    1
    13    11     1    1
    14     1     2   ar
    15     2     3   ar
    16     3     4   ar
    17     4     5   ar
    18     5     6    1
    19     5     7   ar
    20     7     8   ar
    21     8     9   ar
    22     9    10   ar
    23    10    24    1
    24    24    25    1
    25    25    26   ar
    26    25    27   ar
    27    18    13   ar
    28    10     1   ar
    29     9     3   ar
@<TRIPOS>MOLECULE
*****
 27 29 0 0 0
SMALL
GASTEIGER

@<TRIPOS>ATOM
      1 C          62.9555   90.2639   11.6165 C.ar    1  UNL1        0.1719
      2 N          63.3295   91.3014   10.5997 N.ar    1  UNL1       -0.2210
      3 C          64.4569   92.1158   11.1615 C.ar    1  UNL1        0.1014
      4 C          65.2313   93.2747   10.6073 C.ar    1  UNL1        0.0503
      5 C          66.3285   93.8995   11.4171 C.ar    1  UNL1        0.1417
      6 F          67.1029   95.0585   10.8629 F       1  UNL1       -0.2041
      7 C          66.6513   93.3654   12.7811 C.ar    1  UNL1        0.0312
      8 C          65.8769   92.2065   13.3354 C.ar    1  UNL1        0.0211
      9 C          64.7797   91.5817   12.5256 C.ar    1  UNL1        0.0797
     10 N          63.8517   90.4372   12.8067 N.ar    1  UNL1       -0.3011
     11 S          61.8749   89.2341   11.4689 S.3     1  UNL1       -0.0724
     12 C          61.9753   88.1900   10.3967 C.3     1  UNL1        0.0943
     13 C          62.4148   85.7295    9.6877 C.ar    1  UNL1        0.1355
     14 C          62.8094   84.3263   10.0418 C.ar    1  UNL1        0.0367
     15 C          63.1590   83.9804   11.4588 C.ar    1  UNL1        0.0059
     16 C          63.1141   85.0378   12.5219 C.ar    1  UNL1        0.0346
     17 C          62.7195   86.4410   12.1679 C.ar    1  UNL1        0.0024
     18 C          62.3698   86.7868   10.7507 C.ar    1  UNL1        0.0232
     19 C          63.4637   84.6919   13.9390 C.2     1  UNL1        0.1735
     20 C          64.8661   84.2906   14.2889 C.3     1  UNL1        0.0773
     21 O          62.4110   84.7474   15.0061 O.2     1  UNL1       -0.2913
     22 C          60.6458   85.9611    7.7991 C.3     1  UNL1        0.2525
     23 O          62.0652   86.0754    8.2707 O.3     1  UNL1       -0.4717
     24 C          63.8248   89.6110   14.0584 C.3     1  UNL1        0.1496
     25 C          63.2105   90.1649   15.3096 C.2     1  UNL1        0.0733
     26 O          62.1575   89.3831   16.0378 O.co2   1  UNL1       -0.5472
     27 O          63.6490   91.5005   15.8328 O.co2   1  UNL1       -0.5472
@<TRIPOS>UNITY_ATOM_ATTR
26 1
charge -1
@<TRIPOS>BOND
     1    22    23    1
     2    23    13    1
     3    13    14   ar
     4    14    15   ar
     5    15    16   ar
     6    16    19    1
     7    19    20    1
     8    19    21    2
     9    16    17   ar
    10    17    18   ar
    11    18    12    1
    12    12    11    1
    13    11     1    1
    14     1     2   ar
    15     2     3   ar
    16     3     4   ar
    17     4     5   ar
    18     5     6    1
    19     5     7   ar
    20     7     8   ar
    21     8     9   ar
    22     9    10   ar
    23    10    24    1
    24    24    25    1
    25    25    26   ar
    26    25    27   ar
    27    18    13   ar
    28    10     1   ar
    29     9     3   ar
@<TRIPOS>MOLECULE
*****
 27 29 0 0 0
SMALL
GASTEIGER

@<TRIPOS>ATOM
      1 C          62.8036   85.2558   12.3951 C.ar    1  UNL1        0.1719
      2 N          61.7328   86.2477   12.0494 N.ar    1  UNL1       -0.2210
      3 C          61.5250   86.2069   10.5645 C.ar    1  UNL1        0.1014
      4 C          60.5994   86.9645    9.6593 C.ar    1  UNL1        0.0503
      5 C          60.6162   86.7048    8.1821 C.ar    1  UNL1        0.1417
      6 F          59.6906   87.4624    7.2769 F       1  UNL1       -0.2041
      7 C          61.5586   85.6877    7.6100 C.ar    1  UNL1        0.0312
      8 C          62.4841   84.9301    8.5151 C.ar    1  UNL1        0.0211
      9 C          62.4673   85.1897    9.9924 C.ar    1  UNL1        0.0797
     10 N          63.2576   84.6019   11.1238 N.ar    1  UNL1       -0.3011
     11 S          63.3283   84.9683   13.7706 S.3     1  UNL1       -0.0724
     12 C          64.3958   85.8395   14.3634 C.3     1  UNL1        0.0943
     13 C          63.5067   87.4694   16.1807 C.ar    1  UNL1        0.1355
     14 C          63.1760   88.8631   16.6261 C.ar    1  UNL1        0.0367
     15 C          63.4036   90.0204   15.6994 C.ar    1  UNL1        0.0059
     16 C          63.9619   89.7842   14.3274 C.ar    1  UNL1        0.0346
     17 C          64.2927   88.3905   13.8820 C.ar    1  UNL1        0.0024
     18 C          64.0651   87.2331   14.8087 C.ar    1  UNL1        0.0232
     19 C          64.1895   90.9415   13.4007 C.2     1  UNL1        0.1735
     20 C          63.6191   90.9152   12.0136 C.3     1  UNL1        0.0773
     21 O          64.9875   92.1252   13.8611 O.2     1  UNL1       -0.2913
     22 C          62.6958   86.5453   18.4695 C.3     1  UNL1        0.2525
     23 O          63.2792   86.3121   17.1074 O.3     1  UNL1       -0.4717
     24 C          64.3159   83.5457   11.0047 C.3     1  UNL1        0.1496
     25 C          64.0003   82.1238   11.3634 C.2     1  UNL1        0.0733
     26 O          64.2874   81.6176   12.7460 O.co2   1  UNL1       -0.5472
     27 O          63.3977   81.2081   10.3396 O.co2   1  UNL1       -0.5472
@<TRIPOS>UNITY_ATOM_ATTR
26 1
charge -1
@<TRIPOS>BOND
     1    22    23    1
     2    23    13    1
     3    13    14   ar
     4    14    15   ar
     5    15    16   ar
     6    16    19    1
     7    19    20    1
     8    19    21    2
     9    16    17   ar
    10    17    18   ar
    11    18    12    1
    12    12    11    1
    13    11     1    1
    14     1     2   ar
    15     2     3   ar
    16     3     4   ar
    17     4     5   ar
    18     5     6    1
    19     5     7   ar
    20     7     8   ar
    21     8     9   ar
    22     9    10   ar
    23    10    24    1
    24    24    25    1
    25    25    26   ar
    26    25    27   ar
    27    18    13   ar
    28    10     1   ar
    29     9     3   ar
@<TRIPOS>MOLECULE
*****
 27 29 0 0 0
SMALL
GASTEIGER

@<TRIPOS>ATOM
      1 C          64.2664   89.7385   14.0374 C.ar    1  UNL1        0.1719
      2 N          65.2340   90.8264   14.3983 N.ar    1  UNL1       -0.2210
      3 C          65.3291   91.7673   13.2340 C.ar    1  UNL1        0.1014
      4 C          66.1258   93.0197   13.0181 C.ar    1  UNL1        0.0503
      5 C          66.0137   93.7658   11.7217 C.ar    1  UNL1        0.1417
      6 F          66.8104   95.0183   11.5058 F       1  UNL1       -0.2041
      7 C          65.1049   93.2595   10.6412 C.ar    1  UNL1        0.0312
      8 C          64.3081   92.0070   10.8570 C.ar    1  UNL1        0.0211
      9 C          64.4203   91.2610   12.1535 C.ar    1  UNL1        0.0797
     10 N          63.7635   90.0071   12.6500 N.ar    1  UNL1       -0.3011
     11 S          63.8712   88.5847   14.9105 S.3     1  UNL1       -0.0724
     12 C          64.6595   87.3092   14.8703 C.3     1  UNL1        0.0943
     13 C          63.4071   85.2550   15.8510 C.ar    1  UNL1        0.1355
     14 C          62.7044   83.9450   15.6510 C.ar    1  UNL1        0.0367
     15 C          62.5514   83.3791   14.2704 C.ar    1  UNL1        0.0059
     16 C          63.1010   84.1232   13.0896 C.ar    1  UNL1        0.0346
     17 C          63.8037   85.4333   13.2896 C.ar    1  UNL1        0.0024
     18 C          63.9568   85.9992   14.6703 C.ar    1  UNL1        0.0232
     19 C          62.9480   83.5574   11.7089 C.2     1  UNL1        0.1735
     20 C          62.8392   82.0740   11.5141 C.3     1  UNL1        0.0773
     21 O          62.9037   84.4748   10.5230 O.2     1  UNL1       -0.2913
     22 C          62.4378   86.5991   17.8520 C.3     1  UNL1        0.2525
     23 O          63.5602   85.8209   17.2317 O.3     1  UNL1       -0.4717
     24 C          62.7770   89.1690   11.8921 C.3     1  UNL1        0.1496
     25 C          61.3912   89.6850   11.6409 C.2     1  UNL1        0.0733
     26 O          61.0761   90.3941   10.3571 O.co2   1  UNL1       -0.5472
     27 O          60.3203   89.4919   12.6734 O.co2   1  UNL1       -0.5472
@<TRIPOS>UNITY_ATOM_ATTR
26 1
charge -1
@<TRIPOS>BOND
     1    22    23    1
     2    23    13    1
     3    13    14   ar
     4    14    15   ar
     5    15    16   ar
     6    16    19    1
     7    19    20    1
     8    19    21    2
     9    16    17   ar
    10    17    18   ar
    11    18    12    1
    12    12    11    1
    13    11     1    1
    14     1     2   ar
    15     2     3   ar
    16     3     4   ar
    17     4     5   ar
    18     5     6    1
    19     5     7   ar
    20     7     8   ar
    21     8     9   ar
    22     9    10   ar
    23    10    24    1
    24    24    25    1
    25    25    26   ar
    26    25    27   ar
    27    18    13   ar
    28    10     1   ar
    29     9     3   ar
@<TRIPOS>MOLECULE
*****
 27 29 0 0 0
SMALL
GASTEIGER

@<TRIPOS>ATOM
      1 C          62.2653   87.3648   11.1238 C.ar    1  UNL1        0.1719
      2 N          62.8185   86.7072   12.3533 N.ar    1  UNL1       -0.2210
      3 C          63.2176   85.3075   11.9907 C.ar    1  UNL1        0.1014
      4 C          63.8205   84.1951   12.7963 C.ar    1  UNL1        0.0503
      5 C          64.1170   82.8752   12.1483 C.ar    1  UNL1        0.1417
      6 F          64.7199   81.7628   12.9539 F       1  UNL1       -0.2041
      7 C          63.8105   82.6677   10.6946 C.ar    1  UNL1        0.0312
      8 C          63.2077   83.7801    9.8890 C.ar    1  UNL1        0.0211
      9 C          62.9112   85.1000   10.5370 C.ar    1  UNL1        0.0797
     10 N          62.3227   86.3715   10.0013 N.ar    1  UNL1       -0.3011
     11 S          61.7461   88.7691   11.0328 S.3     1  UNL1       -0.0724
     12 C          62.7017   89.9124   10.8609 C.3     1  UNL1        0.0943
     13 C          64.5120   91.4894   11.8537 C.ar    1  UNL1        0.1355
     14 C          65.2529   92.0324   13.0396 C.ar    1  UNL1        0.0367
     15 C          64.9243   91.5416   14.4183 C.ar    1  UNL1        0.0059
     16 C          63.8548   90.5077   14.6114 C.ar    1  UNL1        0.0346
     17 C          63.1139   89.9646   13.4255 C.ar    1  UNL1        0.0024
     18 C          63.4426   90.4555   12.0467 C.ar    1  UNL1        0.0232
     19 C          63.5262   90.0169   15.9901 C.2     1  UNL1        0.1735
     20 C          63.4049   88.5451   16.2533 C.3     1  UNL1        0.0773
     21 O          63.3189   90.9978   17.1058 O.2     1  UNL1       -0.2913
     22 C          65.6054   93.2582   10.2962 C.3     1  UNL1        0.2525
     23 O          64.8406   91.9802   10.4750 O.3     1  UNL1       -0.4717
     24 C          61.8708   86.6081    8.5907 C.3     1  UNL1        0.1496
     25 C          60.4263   86.4332    8.2265 C.2     1  UNL1        0.0733
     26 O          59.3735   87.2419    8.9250 O.co2   1  UNL1       -0.5472
     27 O          60.0344   85.4497    7.1639 O.co2   1  UNL1       -0.5472
@<TRIPOS>UNITY_ATOM_ATTR
26 1
charge -1
@<TRIPOS>BOND
     1    22    23    1
     2    23    13    1
     3    13    14   ar
     4    14    15   ar
     5    15    16   ar
     6    16    19    1
     7    19    20    1
     8    19    21    2
     9    16    17   ar
    10    17    18   ar
    11    18    12    1
    12    12    11    1
    13    11     1    1
    14     1     2   ar
    15     2     3   ar
    16     3     4   ar
    17     4     5   ar
    18     5     6    1
    19     5     7   ar
    20     7     8   ar
    21     8     9   ar
    22     9    10   ar
    23    10    24    1
    24    24    25    1
    25    25    26   ar
    26    25    27   ar
    27    18    13   ar
    28    10     1   ar
    29     9     3   ar
@<TRIPOS>MOLECULE
*****
 27 29 0 0 0
SMALL
GASTEIGER

@<TRIPOS>ATOM
      1 C          64.0132   86.9291   14.2804 C.ar    1  UNL1        0.1719
      2 N          64.2264   85.6419   15.0204 N.ar    1  UNL1       -0.2210
      3 C          63.7595   84.5192   14.1419 C.ar    1  UNL1        0.1014
      4 C          63.7265   83.0334   14.3445 C.ar    1  UNL1        0.0503
      5 C          63.1916   82.1409   13.2641 C.ar    1  UNL1        0.1417
      6 F          63.1586   80.6549   13.4666 F       1  UNL1       -0.2041
      7 C          62.6898   82.7343   11.9811 C.ar    1  UNL1        0.0312
      8 C          62.7228   84.2201   11.7786 C.ar    1  UNL1        0.0211
      9 C          63.2577   85.1126   12.8590 C.ar    1  UNL1        0.0797
     10 N          63.4144   86.6019   12.9446 N.ar    1  UNL1       -0.3011
     11 S          64.3411   88.3022   14.7872 S.3     1  UNL1       -0.0724
     12 C          63.7270   89.5074   14.1389 C.3     1  UNL1        0.0943
     13 C          64.2376   91.3849   12.4172 C.ar    1  UNL1        0.1355
     14 C          65.1114   92.5063   11.9390 C.ar    1  UNL1        0.0367
     15 C          66.3486   92.8718   12.7044 C.ar    1  UNL1        0.0059
     16 C          66.7119   92.1158   13.9480 C.ar    1  UNL1        0.0346
     17 C          65.8381   90.9944   14.4262 C.ar    1  UNL1        0.0024
     18 C          64.6008   90.6289   13.6607 C.ar    1  UNL1        0.0232
     19 C          67.9491   92.4813   14.7133 C.2     1  UNL1        0.1735
     20 C          67.8478   92.8835   16.1549 C.3     1  UNL1        0.0773
     21 O          69.2875   92.4447   14.0372 O.2     1  UNL1       -0.2913
     22 C          62.9849   91.1267   10.1557 C.3     1  UNL1        0.2525
     23 O          63.0004   91.0194   11.6518 O.3     1  UNL1       -0.4717
     24 C          63.0385   87.5906   11.8810 C.3     1  UNL1        0.1496
     25 C          61.8519   87.3306   11.0010 C.2     1  UNL1        0.0733
     26 O          62.0528   86.9560    9.5624 O.co2   1  UNL1       -0.5472
     27 O          60.4645   87.4453   11.5594 O.co2   1  UNL1       -0.5472
@<TRIPOS>UNITY_ATOM_ATTR
26 1
charge -1
@<TRIPOS>BOND
     1    22    23    1
     2    23    13    1
     3    13    14   ar
     4    14    15   ar
     5    15    16   ar
     6    16    19    1
     7    19    20    1
     8    19    21    2
     9    16    17   ar
    10    17    18   ar
    11    18    12    1
    12    12    11    1
    13    11     1    1
    14     1     2   ar
    15     2     3   ar
    16     3     4   ar
    17     4     5   ar
    18     5     6    1
    19     5     7   ar
    20     7     8   ar
    21     8     9   ar
    22     9    10   ar
    23    10    24    1
    24    24    25    1
    25    25    26   ar
    26    25    27   ar
    27    18    13   ar
    28    10     1   ar
    29     9     3   ar
@<TRIPOS>MOLECULE
*****
 27 29 0 0 0
SMALL
GASTEIGER

@<TRIPOS>ATOM
      1 C          62.2250   88.5045   11.3174 C.ar    1  UNL1        0.1719
      2 N          61.7457   89.5820   10.3905 N.ar    1  UNL1       -0.2210
      3 C          60.8652   88.9458    9.3561 C.ar    1  UNL1        0.1014
      4 C          60.1141   89.5157    8.1894 C.ar    1  UNL1        0.0503
      5 C          59.2983   88.6148    7.3104 C.ar    1  UNL1        0.1417
      6 F          58.5471   89.1847    6.1437 F       1  UNL1       -0.2041
      7 C          59.2334   87.1441    7.5980 C.ar    1  UNL1        0.0312
      8 C          59.9845   86.5742    8.7646 C.ar    1  UNL1        0.0211
      9 C          60.8004   87.4750    9.6437 C.ar    1  UNL1        0.0797
     10 N          61.6408   87.2023   10.8558 N.ar    1  UNL1       -0.3011
     11 S          63.1297   88.6956   12.4985 S.3     1  UNL1       -0.0724
     12 C          62.8299   89.7640   13.5078 C.3     1  UNL1        0.0943
     13 C          64.1033   91.0421   15.3772 C.ar    1  UNL1        0.1355
     14 C          65.1774   92.0025   15.7943 C.ar    1  UNL1        0.0367
     15 C          66.0524   92.6450   14.7591 C.ar    1  UNL1        0.0059
     16 C          65.8532   92.3271   13.3067 C.ar    1  UNL1        0.0346
     17 C          64.7790   91.3668   12.8896 C.ar    1  UNL1        0.0024
     18 C          63.9041   90.7243   13.9249 C.ar    1  UNL1        0.0232
     19 C          66.7281   92.9696   12.2716 C.2     1  UNL1        0.1735
     20 C          66.3055   94.2559   11.6259 C.3     1  UNL1        0.0773
     21 O          68.0257   92.3258   11.8819 O.2     1  UNL1       -0.2913
     22 C          63.2667   88.9131   16.6089 C.3     1  UNL1        0.2525
     23 O          63.2283   90.3997   16.4124 O.3     1  UNL1       -0.4717
     24 C          61.8587   85.8626   11.4943 C.3     1  UNL1        0.1496
     25 C          62.6249   84.7996   10.7644 C.2     1  UNL1        0.0733
     26 O          63.1231   85.0558    9.3729 O.co2   1  UNL1       -0.5472
     27 O          62.8930   83.4803   11.4259 O.co2   1  UNL1       -0.5472
@<TRIPOS>UNITY_ATOM_ATTR
26 1
charge -1
@<TRIPOS>BOND
     1    22    23    1
     2    23    13    1
     3    13    14   ar
     4    14    15   ar
     5    15    16   ar
     6    16    19    1
     7    19    20    1
     8    19    21    2
     9    16    17   ar
    10    17    18   ar
    11    18    12    1
    12    12    11    1
    13    11     1    1
    14     1     2   ar
    15     2     3   ar
    16     3     4   ar
    17     4     5   ar
    18     5     6    1
    19     5     7   ar
    20     7     8   ar
    21     8     9   ar
    22     9    10   ar
    23    10    24    1
    24    24    25    1
    25    25    26   ar
    26    25    27   ar
    27    18    13   ar
    28    10     1   ar
    29     9     3   ar
