@<TRIPOS>MOLECULE
*****
 25 27 0 0 0
SMALL
GASTEIGER

@<TRIPOS>ATOM
      1 C          62.1870   87.2351   11.9167 C.2     1  UNK1        0.0408
      2 C          62.9712   88.4991   12.1103 C.ar    1  UNK1        0.1434
      3 N          62.8795   89.6012   11.0970 N.ar    1  UNK1       -0.2016
      4 C          63.6637   90.8652   11.2907 C.ar    2  PHE2        0.2971
      5 O          63.5721   91.9674   10.2774 O.2     2  PHE2       -0.2635
      6 CA         64.5395   91.0269   12.4977 C.ar    2  PHE2        0.1422
      7 CB         65.3236   92.2910   12.6914 C.2     2  PHE2        0.0241
      8 N          64.6311   89.9248   13.5110 N.ar    2  PHE2       -0.2017
      9 C          63.8470   88.6609   13.3173 C.ar    1  UNK1        0.2972
     10 O          63.9386   87.5586   14.3307 O.2     1  UNK1       -0.2635
     11 CG         66.1994   92.4527   13.8984 C.ar    2  PHE2        0.0017
     12 CD1        67.6904   92.5017   13.7421 C.ar    2  PHE2        0.0001
     13 CE1        68.5662   92.6635   14.9491 C.ar    2  PHE2        0.0000
     14 CZ         67.9510   92.7763   16.3124 C.ar    2  PHE2        0.0000
     15 CE2        66.4599   92.7273   16.4688 C.ar    2  PHE2        0.0000
     16 CD2        65.5841   92.5655   15.2618 C.ar    2  PHE2        0.0001
     17 C          61.3112   87.0733   10.7097 C.2     1  UNK1        0.0846
     18 N          60.1061   87.9022   10.3773 N.2     1  UNK1       -0.2267
     19 C          59.5369   87.3954    9.0853 C.2     1  UNK1        0.1942
     20 N          60.3902   86.2533    8.6192 N.2     1  UNK1       -0.2460
     21 C          61.4868   86.0542    9.6231 C.3     1  UNK1        0.1446
     22 C          62.5691   85.0179    9.5528 C.3     1  UNK1        0.0261
     23 C          62.2353   84.5748   10.9463 C.3     1  UNK1        0.0023
     24 C          62.9029   85.4611    8.1592 C.3     1  UNK1        0.0023
     25 C          63.6513   83.9817    9.4824 C.3     1  UNK1        0.0023
@<TRIPOS>BOND
     1     1    17    1
     2    17    18    2
     3    18    19    1
     4    19    20    2
     5    20    21    1
     6    21    22    1
     7    22    23    1
     8    22    24    1
     9    22    25    1
    10     1     2    2
    11     2     3   ar
    12     3     4   ar
    13     4     5    2
    14     4     6   ar
    15     6     7    2
    16     7    11    1
    17    11    12   ar
    18    12    13   ar
    19    13    14   ar
    20    14    15   ar
    21    15    16   ar
    22     6     8   ar
    23     8     9   ar
    24     9    10    2
    25    21    17    1
    26     9     2   ar
    27    16    11   ar
@<TRIPOS>MOLECULE
*****
 25 27 0 0 0
SMALL
GASTEIGER

@<TRIPOS>ATOM
      1 C          63.6031   89.7724   13.4936 C.2     1  UNK1        0.0408
      2 C          63.7268   88.2856   13.6496 C.ar    1  UNK1        0.1434
      3 N          64.2257   87.7058   14.9398 N.ar    1  UNK1       -0.2016
      4 C          64.3493   86.2191   15.0958 C.ar    2  PHE2        0.2971
      5 O          64.8482   85.6392   16.3861 O.2     2  PHE2       -0.2635
      6 CA         63.9740   85.3122   13.9614 C.ar    2  PHE2        0.1422
      7 CB         64.0976   83.8254   14.1174 C.2     2  PHE2        0.0241
      8 N          63.4751   85.8920   12.6711 N.ar    2  PHE2       -0.2017
      9 C          63.3515   87.3787   12.5152 C.ar    1  UNK1        0.2972
     10 O          62.8525   87.9586   11.2249 O.2     1  UNK1       -0.2635
     11 CG         63.7223   82.9185   12.9831 C.ar    2  PHE2        0.0017
     12 CD1        64.2730   83.1673   11.6102 C.ar    2  PHE2        0.0001
     13 CE1        63.8977   82.2605   10.4759 C.ar    2  PHE2        0.0000
     14 CZ         62.9717   81.1047   10.7144 C.ar    2  PHE2        0.0000
     15 CE2        62.4211   80.8559   12.0873 C.ar    2  PHE2        0.0000
     16 CD2        62.7963   81.7627   13.2217 C.ar    2  PHE2        0.0001
     17 C          63.9784   90.6793   14.6279 C.2     1  UNK1        0.0846
     18 N          63.2597   90.7946   15.9394 N.2     1  UNK1       -0.2267
     19 C          63.9754   91.8167   16.7720 C.2     1  UNK1        0.1942
     20 N          65.1365   92.3330   15.9750 N.2     1  UNK1       -0.2460
     21 C          65.1383   91.6301   14.6499 C.3     1  UNK1        0.1446
     22 C          66.1266   91.8410   13.5414 C.3     1  UNK1        0.0261
     23 C          65.0237   92.3324   12.6515 C.3     1  UNK1        0.0023
     24 C          67.2296   91.3496   14.4313 C.3     1  UNK1        0.0023
     25 C          67.1151   92.0519   12.4329 C.3     1  UNK1        0.0023
@<TRIPOS>BOND
     1     1    17    1
     2    17    18    2
     3    18    19    1
     4    19    20    2
     5    20    21    1
     6    21    22    1
     7    22    23    1
     8    22    24    1
     9    22    25    1
    10     1     2    2
    11     2     3   ar
    12     3     4   ar
    13     4     5    2
    14     4     6   ar
    15     6     7    2
    16     7    11    1
    17    11    12   ar
    18    12    13   ar
    19    13    14   ar
    20    14    15   ar
    21    15    16   ar
    22     6     8   ar
    23     8     9   ar
    24     9    10    2
    25    21    17    1
    26     9     2   ar
    27    16    11   ar
@<TRIPOS>MOLECULE
*****
 25 27 0 0 0
SMALL
GASTEIGER

@<TRIPOS>ATOM
      1 C          63.7718   91.4381   12.8097 C.2     1  UNK1        0.0408
      2 C          63.4342   90.0600   12.3228 C.ar    1  UNK1        0.1434
      3 N          63.5973   88.8812   13.2358 N.ar    1  UNK1       -0.2016
      4 C          63.2597   87.5032   12.7489 C.ar    2  PHE2        0.2971
      5 O          63.4227   86.3242   13.6619 O.2     2  PHE2       -0.2635
      6 CA         62.7591   87.3040   11.3490 C.ar    2  PHE2        0.1422
      7 CB         62.4215   85.9260   10.8621 C.2     2  PHE2        0.0241
      8 N          62.5960   88.4829   10.4360 N.ar    2  PHE2       -0.2017
      9 C          62.9336   89.8609   10.9229 C.ar    1  UNK1        0.2972
     10 O          62.7706   91.0399   10.0099 O.2     1  UNK1       -0.2635
     11 CG         61.9209   85.7268    9.4622 C.ar    2  PHE2        0.0017
     12 CD1        62.7998   85.0737    8.4371 C.ar    2  PHE2        0.0001
     13 CE1        62.2992   84.8746    7.0372 C.ar    2  PHE2        0.0000
     14 CZ         60.9196   85.3286    6.6624 C.ar    2  PHE2        0.0000
     15 CE2        60.0406   85.9818    7.6875 C.ar    2  PHE2        0.0000
     16 CD2        60.5412   86.1809    9.0874 C.ar    2  PHE2        0.0001
     17 C          64.2725   91.6372   14.2096 C.2     1  UNK1        0.0846
     18 N          63.4581   91.5133   15.4632 N.2     1  UNK1       -0.2267
     19 C          64.3577   91.7947   16.6300 C.2     1  UNK1        0.1942
     20 N          65.7280   92.0926   16.0976 N.2     1  UNK1       -0.2460
     21 C          65.6753   91.9952   14.6017 C.3     1  UNK1        0.1446
     22 C          66.8239   92.2170   13.6628 C.3     1  UNK1        0.0261
     23 C          65.9924   93.1845   12.8740 C.3     1  UNK1        0.0023
     24 C          67.6555   91.2493   14.4515 C.3     1  UNK1        0.0023
     25 C          67.9726   92.4386   12.7239 C.3     1  UNK1        0.0023
@<TRIPOS>BOND
     1     1    17    1
     2    17    18    2
     3    18    19    1
     4    19    20    2
     5    20    21    1
     6    21    22    1
     7    22    23    1
     8    22    24    1
     9    22    25    1
    10     1     2    2
    11     2     3   ar
    12     3     4   ar
    13     4     5    2
    14     4     6   ar
    15     6     7    2
    16     7    11    1
    17    11    12   ar
    18    12    13   ar
    19    13    14   ar
    20    14    15   ar
    21    15    16   ar
    22     6     8   ar
    23     8     9   ar
    24     9    10    2
    25    21    17    1
    26     9     2   ar
    27    16    11   ar
@<TRIPOS>MOLECULE
*****
 25 27 0 0 0
SMALL
GASTEIGER

@<TRIPOS>ATOM
      1 C          62.0853   87.2874   11.7060 C.2     1  UNK1        0.0408
      2 C          62.9014   88.5251   11.9348 C.ar    1  UNK1        0.1434
      3 N          62.8476   89.6522   10.9466 N.ar    1  UNK1       -0.2016
      4 C          63.6636   90.8898   11.1754 C.ar    2  PHE2        0.2971
      5 O          63.6099   92.0170   10.1871 O.2     2  PHE2       -0.2635
      6 CA         64.5334   91.0003   12.3924 C.ar    2  PHE2        0.1422
      7 CB         65.3495   92.2379   12.6212 C.2     2  PHE2        0.0241
      8 N          64.5872   89.8732   13.3807 N.ar    2  PHE2       -0.2017
      9 C          63.7712   88.6356   13.1519 C.ar    1  UNK1        0.2972
     10 O          63.8249   87.5084   14.1402 O.2     1  UNK1       -0.2635
     11 CG         66.2193   92.3484   13.8382 C.ar    2  PHE2        0.0017
     12 CD1        65.5985   92.5628   15.1868 C.ar    2  PHE2        0.0001
     13 CE1        66.4683   92.6733   16.4039 C.ar    2  PHE2        0.0000
     14 CZ         67.9589   92.5694   16.2724 C.ar    2  PHE2        0.0000
     15 CE2        68.5798   92.3550   14.9238 C.ar    2  PHE2        0.0000
     16 CD2        67.7100   92.2446   13.7067 C.ar    2  PHE2        0.0001
     17 C          61.2155   87.1769   10.4890 C.2     1  UNK1        0.0846
     18 N          61.2862   86.0975    9.4498 N.2     1  UNK1       -0.2267
     19 C          60.2367   86.3798    8.4160 C.2     1  UNK1        0.1942
     20 N          59.5174   87.6338    8.8162 N.2     1  UNK1       -0.2460
     21 C          60.1224   88.1264   10.0974 C.3     1  UNK1        0.1446
     22 C          59.7070   89.3532   10.8540 C.3     1  UNK1        0.0261
     23 C          60.2050   90.2142    9.7314 C.3     1  UNK1        0.0023
     24 C          59.2090   88.4921   11.9768 C.3     1  UNK1        0.0023
     25 C          59.2917   90.5799   11.6108 C.3     1  UNK1        0.0023
@<TRIPOS>BOND
     1     1    17    1
     2    17    18    2
     3    18    19    1
     4    19    20    2
     5    20    21    1
     6    21    22    1
     7    22    23    1
     8    22    24    1
     9    22    25    1
    10     1     2    2
    11     2     3   ar
    12     3     4   ar
    13     4     5    2
    14     4     6   ar
    15     6     7    2
    16     7    11    1
    17    11    12   ar
    18    12    13   ar
    19    13    14   ar
    20    14    15   ar
    21    15    16   ar
    22     6     8   ar
    23     8     9   ar
    24     9    10    2
    25    21    17    1
    26     9     2   ar
    27    16    11   ar
@<TRIPOS>MOLECULE
*****
 25 27 0 0 0
SMALL
GASTEIGER

@<TRIPOS>ATOM
      1 C          63.5147   83.9949   14.3341 C.2     1  UNK1        0.0408
      2 C          63.2869   85.2600   13.5610 C.ar    1  UNK1        0.1434
      3 N          62.2524   85.2998   12.4756 N.ar    1  UNK1       -0.2016
      4 C          62.0246   86.5649   11.7026 C.ar    2  PHE2        0.2971
      5 O          60.9901   86.6047   10.6171 O.2     2  PHE2       -0.2635
      6 CA         62.8314   87.7903   12.0150 C.ar    2  PHE2        0.1422
      7 CB         62.6036   89.0554   11.2420 C.2     2  PHE2        0.0241
      8 N          63.8659   87.7505   13.1005 N.ar    2  PHE2       -0.2017
      9 C          64.0936   86.4854   13.8734 C.ar    1  UNK1        0.2972
     10 O          65.1282   86.4456   14.9589 O.2     1  UNK1       -0.2635
     11 CG         63.4103   90.2808   11.5544 C.ar    2  PHE2        0.0017
     12 CD1        63.8619   90.5431   12.9605 C.ar    2  PHE2        0.0001
     13 CE1        64.6687   91.7684   13.2730 C.ar    2  PHE2        0.0000
     14 CZ         65.0238   92.7316   12.1793 C.ar    2  PHE2        0.0000
     15 CE2        64.5722   92.4693   10.7731 C.ar    2  PHE2        0.0000
     16 CD2        63.7655   91.2439   10.4606 C.ar    2  PHE2        0.0001
     17 C          62.7079   82.7695   14.0216 C.2     1  UNK1        0.0846
     18 N          61.6813   82.1384   14.9147 N.2     1  UNK1       -0.2267
     19 C          61.1250   80.9389   14.2063 C.2     1  UNK1        0.1942
     20 N          61.8079   80.8287   12.8753 N.2     1  UNK1       -0.2460
     21 C          62.7862   81.9600   12.7612 C.3     1  UNK1        0.1446
     22 C          63.6850   82.2338   11.5919 C.3     1  UNK1        0.0261
     23 C          64.8709   81.8021   12.4024 C.3     1  UNK1        0.0023
     24 C          62.4990   82.6656   10.7814 C.3     1  UNK1        0.0023
     25 C          64.5837   82.5076   10.4225 C.3     1  UNK1        0.0023
@<TRIPOS>BOND
     1     1    17    1
     2    17    18    2
     3    18    19    1
     4    19    20    2
     5    20    21    1
     6    21    22    1
     7    22    23    1
     8    22    24    1
     9    22    25    1
    10     1     2    2
    11     2     3   ar
    12     3     4   ar
    13     4     5    2
    14     4     6   ar
    15     6     7    2
    16     7    11    1
    17    11    12   ar
    18    12    13   ar
    19    13    14   ar
    20    14    15   ar
    21    15    16   ar
    22     6     8   ar
    23     8     9   ar
    24     9    10    2
    25    21    17    1
    26     9     2   ar
    27    16    11   ar
@<TRIPOS>MOLECULE
*****
 25 27 0 0 0
SMALL
GASTEIGER

@<TRIPOS>ATOM
      1 C          62.1108   90.5266   10.9797 C.2     1  UNK1        0.0408
      2 C          63.0392   90.7210   12.1417 C.ar    1  UNK1        0.1434
      3 N          62.6693   90.1887   13.4944 N.ar    1  UNK1       -0.2016
      4 C          63.5977   90.3831   14.6564 C.ar    2  PHE2        0.2971
      5 O          63.2279   89.8507   16.0091 O.2     2  PHE2       -0.2635
      6 CA         64.8960   91.1098   14.4657 C.ar    2  PHE2        0.1422
      7 CB         65.8244   91.3042   15.6278 C.2     2  PHE2        0.0241
      8 N          65.2658   91.6422   13.1130 N.ar    2  PHE2       -0.2017
      9 C          64.3374   91.4478   11.9511 C.ar    1  UNK1        0.2972
     10 O          64.7073   91.9802   10.5983 O.2     1  UNK1       -0.2635
     11 CG         67.1226   92.0310   15.4371 C.ar    2  PHE2        0.0017
     12 CD1        68.0902   91.5748   14.3856 C.ar    2  PHE2        0.0001
     13 CE1        69.3884   92.3015   14.1949 C.ar    2  PHE2        0.0000
     14 CZ         69.7191   93.4846   15.0557 C.ar    2  PHE2        0.0000
     15 CE2        68.7516   93.9409   16.1073 C.ar    2  PHE2        0.0000
     16 CD2        67.4533   93.2141   16.2980 C.ar    2  PHE2        0.0001
     17 C          60.8125   89.7999   11.1703 C.2     1  UNK1        0.0846
     18 N          59.6066   90.3237   11.8924 N.2     1  UNK1       -0.2267
     19 C          58.5410   89.2692   11.8408 C.2     1  UNK1        0.1942
     20 N          59.0884   88.0937   11.0868 N.2     1  UNK1       -0.2460
     21 C          60.4922   88.4216   10.6725 C.3     1  UNK1        0.1446
     22 C          61.4140   87.5282    9.8965 C.3     1  UNK1        0.0261
     23 C          62.1486   87.1891   11.1595 C.3     1  UNK1        0.0023
     24 C          60.6794   87.8673    8.6334 C.3     1  UNK1        0.0023
     25 C          62.3357   86.6347    9.1204 C.3     1  UNK1        0.0023
@<TRIPOS>BOND
     1     1    17    1
     2    17    18    2
     3    18    19    1
     4    19    20    2
     5    20    21    1
     6    21    22    1
     7    22    23    1
     8    22    24    1
     9    22    25    1
    10     1     2    2
    11     2     3   ar
    12     3     4   ar
    13     4     5    2
    14     4     6   ar
    15     6     7    2
    16     7    11    1
    17    11    12   ar
    18    12    13   ar
    19    13    14   ar
    20    14    15   ar
    21    15    16   ar
    22     6     8   ar
    23     8     9   ar
    24     9    10    2
    25    21    17    1
    26     9     2   ar
    27    16    11   ar
@<TRIPOS>MOLECULE
*****
 25 27 0 0 0
SMALL
GASTEIGER

@<TRIPOS>ATOM
      1 C          63.2581   89.4628   12.1123 C.2     1  UNK1        0.0408
      2 C          62.3307   89.2254   10.9575 C.ar    1  UNK1        0.1434
      3 N          61.6738   87.8879   10.7858 N.ar    1  UNK1       -0.2016
      4 C          60.7465   87.6505    9.6309 C.ar    2  PHE2        0.2971
      5 O          60.0896   86.3129    9.4592 O.2     2  PHE2       -0.2635
      6 CA         60.4761   88.7506    8.6478 C.ar    2  PHE2        0.1422
      7 CB         59.5488   88.5132    7.4929 C.2     2  PHE2        0.0241
      8 N          61.1331   90.0881    8.8194 N.ar    2  PHE2       -0.2017
      9 C          62.0604   90.3255    9.9743 C.ar    1  UNK1        0.2972
     10 O          62.7173   91.6630   10.1460 O.2     1  UNK1       -0.2635
     11 CG         59.2784   89.6133    6.5097 C.ar    2  PHE2        0.0017
     12 CD1        60.4166   90.2661    5.7829 C.ar    2  PHE2        0.0001
     13 CE1        60.1462   91.3662    4.7997 C.ar    2  PHE2        0.0000
     14 CZ         58.7376   91.8135    4.5434 C.ar    2  PHE2        0.0000
     15 CE2        57.5993   91.1607    5.2702 C.ar    2  PHE2        0.0000
     16 CD2        57.8697   90.0606    6.2533 C.ar    2  PHE2        0.0001
     17 C          63.5285   88.3627   13.0955 C.2     1  UNK1        0.0846
     18 N          63.5044   86.8920   12.8017 N.2     1  UNK1       -0.2267
     19 C          63.8314   86.1604   14.0697 C.2     1  UNK1        0.1942
     20 N          64.0577   87.1791   15.1473 N.2     1  UNK1       -0.2460
     21 C          63.8705   88.5401   14.5452 C.3     1  UNK1        0.1446
     22 C          64.0022   89.8489   15.2662 C.3     1  UNK1        0.0261
     23 C          62.9751   89.4025   16.2640 C.3     1  UNK1        0.0023
     24 C          65.0294   90.2953   14.2684 C.3     1  UNK1        0.0023
     25 C          64.1339   91.1577   15.9872 C.3     1  UNK1        0.0023
@<TRIPOS>BOND
     1     1    17    1
     2    17    18    2
     3    18    19    1
     4    19    20    2
     5    20    21    1
     6    21    22    1
     7    22    23    1
     8    22    24    1
     9    22    25    1
    10     1     2    2
    11     2     3   ar
    12     3     4   ar
    13     4     5    2
    14     4     6   ar
    15     6     7    2
    16     7    11    1
    17    11    12   ar
    18    12    13   ar
    19    13    14   ar
    20    14    15   ar
    21    15    16   ar
    22     6     8   ar
    23     8     9   ar
    24     9    10    2
    25    21    17    1
    26     9     2   ar
    27    16    11   ar
@<TRIPOS>MOLECULE
*****
 25 27 0 0 0
SMALL
GASTEIGER

@<TRIPOS>ATOM
      1 C          71.0785   73.5277   15.1268 C.2     1  UNK1        0.0408
      2 C          71.5448   74.8798   14.6748 C.ar    1  UNK1        0.1434
      3 N          72.0037   75.8908   15.6833 N.ar    1  UNK1       -0.2016
      4 C          72.4700   77.2428   15.2313 C.ar    2  PHE2        0.2971
      5 O          72.9290   78.2539   16.2399 O.2     2  PHE2       -0.2635
      6 CA         72.4775   77.5839   13.7706 C.ar    2  PHE2        0.1422
      7 CB         72.9438   78.9361   13.3185 C.2     2  PHE2        0.0241
      8 N          72.0186   76.5730   12.7620 N.ar    2  PHE2       -0.2017
      9 C          71.5523   75.2209   13.2141 C.ar    1  UNK1        0.2972
     10 O          71.0933   74.2098   12.2055 O.2     1  UNK1       -0.2635
     11 CG         72.9513   79.2772   11.8578 C.ar    2  PHE2        0.0017
     12 CD1        73.6254   78.3635   10.8777 C.ar    2  PHE2        0.0001
     13 CE1        73.6328   78.7046    9.4170 C.ar    2  PHE2        0.0000
     14 CZ         72.9661   79.9593    8.9364 C.ar    2  PHE2        0.0000
     15 CE2        72.2920   80.8731    9.9166 C.ar    2  PHE2        0.0000
     16 CD2        72.2845   80.5320   11.3773 C.ar    2  PHE2        0.0001
     17 C          71.0711   73.1866   16.5875 C.2     1  UNK1        0.0846
     18 N          70.4251   73.9899   17.6772 N.2     1  UNK1       -0.2267
     19 C          70.6631   73.2821   18.9782 C.2     1  UNK1        0.1942
     20 N          71.4562   72.0413   18.6925 N.2     1  UNK1       -0.2460
     21 C          71.7083   71.9823   17.2150 C.3     1  UNK1        0.1446
     22 C          72.4648   70.9077   16.4919 C.3     1  UNK1        0.0261
     23 C          71.2967   69.9799   16.6486 C.3     1  UNK1        0.0023
     24 C          73.6330   71.8355   16.3352 C.3     1  UNK1        0.0023
     25 C          73.2215   69.8331   15.7688 C.3     1  UNK1        0.0023
@<TRIPOS>BOND
     1     1    17    1
     2    17    18    2
     3    18    19    1
     4    19    20    2
     5    20    21    1
     6    21    22    1
     7    22    23    1
     8    22    24    1
     9    22    25    1
    10     1     2    2
    11     2     3   ar
    12     3     4   ar
    13     4     5    2
    14     4     6   ar
    15     6     7    2
    16     7    11    1
    17    11    12   ar
    18    12    13   ar
    19    13    14   ar
    20    14    15   ar
    21    15    16   ar
    22     6     8   ar
    23     8     9   ar
    24     9    10    2
    25    21    17    1
    26     9     2   ar
    27    16    11   ar
@<TRIPOS>MOLECULE
*****
 25 27 0 0 0
SMALL
GASTEIGER

@<TRIPOS>ATOM
      1 C          64.3622   92.2563   11.4395 C.2     1  UNK1        0.0408
      2 C          63.7195   90.9093   11.2891 C.ar    1  UNK1        0.1434
      3 N          63.9661   89.8420   12.3137 N.ar    1  UNK1       -0.2016
      4 C          63.3234   88.4951   12.1632 C.ar    2  PHE2        0.2971
      5 O          63.5700   87.4277   13.1879 O.2     2  PHE2       -0.2635
      6 CA         62.4340   88.2155   10.9881 C.ar    2  PHE2        0.1422
      7 CB         61.7913   86.8685   10.8377 C.2     2  PHE2        0.0241
      8 N          62.1874   89.2828    9.9635 N.ar    2  PHE2       -0.2017
      9 C          62.8301   90.6297   10.1139 C.ar    1  UNK1        0.2972
     10 O          62.5835   91.6971    9.0893 O.2     1  UNK1       -0.2635
     11 CG         60.9019   86.5889    9.6626 C.ar    2  PHE2        0.0017
     12 CD1        59.5480   87.2289    9.5776 C.ar    2  PHE2        0.0001
     13 CE1        58.6587   86.9493    8.4025 C.ar    2  PHE2        0.0000
     14 CZ         59.1233   86.0297    7.3123 C.ar    2  PHE2        0.0000
     15 CE2        60.4772   85.3896    7.3973 C.ar    2  PHE2        0.0000
     16 CD2        61.3666   85.6692    8.5724 C.ar    2  PHE2        0.0001
     17 C          65.2515   92.5359   12.6146 C.2     1  UNK1        0.0846
     18 N          64.9477   92.2114   14.0472 N.2     1  UNK1       -0.2267
     19 C          66.1093   92.6640   14.8815 C.2     1  UNK1        0.1942
     20 N          67.1310   93.2683   13.9644 N.2     1  UNK1       -0.2460
     21 C          66.6009   93.1891   12.5635 C.3     1  UNK1        0.1446
     22 C          67.2978   93.6774   11.3282 C.3     1  UNK1        0.0261
     23 C          66.5875   94.9931   11.4475 C.3     1  UNK1        0.0023
     24 C          68.0081   92.3617   11.2088 C.3     1  UNK1        0.0023
     25 C          67.9948   94.1657   10.0929 C.3     1  UNK1        0.0023
@<TRIPOS>BOND
     1     1    17    1
     2    17    18    2
     3    18    19    1
     4    19    20    2
     5    20    21    1
     6    21    22    1
     7    22    23    1
     8    22    24    1
     9    22    25    1
    10     1     2    2
    11     2     3   ar
    12     3     4   ar
    13     4     5    2
    14     4     6   ar
    15     6     7    2
    16     7    11    1
    17    11    12   ar
    18    12    13   ar
    19    13    14   ar
    20    14    15   ar
    21    15    16   ar
    22     6     8   ar
    23     8     9   ar
    24     9    10    2
    25    21    17    1
    26     9     2   ar
    27    16    11   ar
