@<TRIPOS>MOLECULE
*****
 28 32 0 0 0
SMALL
GASTEIGER

@<TRIPOS>ATOM
      1 N          61.4976   88.0140   10.6267 N.ar    1  UNL1       -0.2954
      2 C          62.0570   89.4050   10.5802 C.ar    1  UNL1        0.2014
      3 N          61.4493   90.1099    9.4039 N.ar    1  UNL1       -0.2136
      4 C          60.5143   89.1545    8.7234 C.ar    1  UNL1        0.0999
      5 C          59.6396   89.2968    7.5132 C.ar    1  UNL1        0.0207
      6 C          58.7947   88.1437    7.0588 C.ar    1  UNL1        0.0016
      7 C          58.8246   86.8484    7.8145 C.ar    1  UNL1        0.0016
      8 C          59.6993   86.7061    9.0247 C.ar    1  UNL1        0.0188
      9 C          60.5441   87.8592    9.4791 C.ar    1  UNL1        0.0801
     10 N          63.0499   89.9886   11.5413 N.pl3   1  UNL1       -0.2794
     11 C          63.3404   89.2895   12.8362 C.3     1  UNL1        0.0955
     12 C          64.3333   89.8731   13.7973 C.3     1  UNL1        0.0459
     13 C          65.0355   91.1558   13.4635 C.3     1  UNL1        0.1086
     14 C          64.7449   91.8549   12.1686 C.3     1  UNL1        0.0459
     15 C          63.7521   91.2713   11.2075 C.3     1  UNL1        0.0955
     16 N          66.0283   91.7395   14.4246 N.ar    1  UNL1       -0.2512
     17 C          67.5214   91.6884   14.2893 C.ar    1  UNL1        0.0966
     18 C          68.1182   92.3940   15.4708 C.ar    1  UNL1        0.0427
     19 C          66.9941   92.8811   16.3363 C.ar    1  UNL1        0.1217
     20 N          65.7025   92.4766   15.6897 N.ar    1  UNL1       -0.1677
     21 C          61.8328   86.9623   11.6425 C.3     1  UNL1        0.1354
     22 F          64.5847   81.9112    9.9357 F       1  UNL1       -0.2042
     23 C          63.8967   83.1740   10.3623 C.ar    1  UNL1        0.1401
     24 C          63.6577   83.4426   11.8187 C.ar    1  UNL1        0.0294
     25 C          62.9697   84.7054   12.2453 C.ar    1  UNL1       -0.0001
     26 C          62.5208   85.6996   11.2157 C.ar    1  UNL1        0.0006
     27 C          62.7598   85.4310    9.7595 C.ar    1  UNL1       -0.0001
     28 C          63.4478   84.1682    9.3328 C.ar    1  UNL1        0.0294
@<TRIPOS>BOND
     1    22    23    1
     2    23    24   ar
     3    24    25   ar
     4    25    26   ar
     5    26    21    1
     6    21     1    1
     7     1     2   ar
     8     2    10    1
     9    10    11    1
    10    11    12    1
    11    12    13    1
    12    13    16    1
    13    16    17   ar
    14    17    18   ar
    15    18    19   ar
    16    19    20   ar
    17    13    14    1
    18    14    15    1
    19     2     3   ar
    20     3     4   ar
    21     4     5   ar
    22     5     6   ar
    23     6     7   ar
    24     7     8   ar
    25     8     9   ar
    26    26    27   ar
    27    27    28   ar
    28    28    23   ar
    29     9     1   ar
    30    15    10    1
    31     9     4   ar
    32    20    16   ar
@<TRIPOS>MOLECULE
*****
 28 32 0 0 0
SMALL
GASTEIGER

@<TRIPOS>ATOM
      1 N          63.5322   83.6800   11.5629 N.ar    1  UNL1       -0.2954
      2 C          63.4681   84.1493   12.9861 C.ar    1  UNL1        0.2014
      3 N          63.1223   82.9710   13.8476 N.ar    1  UNL1       -0.2136
      4 C          62.9727   81.7735   12.9567 C.ar    1  UNL1        0.0999
      5 C          62.6384   80.3407   13.2489 C.ar    1  UNL1        0.0207
      6 C          62.5575   79.3461   12.1290 C.ar    1  UNL1        0.0016
      7 C          62.8108   79.7843   10.7170 C.ar    1  UNL1        0.0016
      8 C          63.1450   81.2171   10.4248 C.ar    1  UNL1        0.0188
      9 C          63.2260   82.2117   11.5447 C.ar    1  UNL1        0.0801
     10 N          63.7078   85.5508   13.4640 N.pl3   1  UNL1       -0.2794
     11 C          64.3665   85.7885   14.7905 C.3     1  UNL1        0.0955
     12 C          64.6062   87.1900   15.2684 C.3     1  UNL1        0.0459
     13 C          64.1872   88.3537   14.4198 C.3     1  UNL1        0.1086
     14 C          63.5285   88.1160   13.0934 C.3     1  UNL1        0.0459
     15 C          63.2888   86.7145   12.6155 C.3     1  UNL1        0.0955
     16 N          64.4269   89.7552   14.8978 N.ar    1  UNL1       -0.2512
     17 C          65.4999   90.6822   14.4086 C.ar    1  UNL1        0.0966
     18 C          65.3718   91.9757   15.1573 C.ar    1  UNL1        0.0427
     19 C          64.2196   91.8482   16.1091 C.ar    1  UNL1        0.1217
     20 N          63.6356   90.4758   15.9487 N.ar    1  UNL1       -0.1677
     21 C          63.8472   84.5298   10.3676 C.3     1  UNL1        0.1354
     22 F          59.4031   86.6552    6.9423 F       1  UNL1       -0.2042
     23 C          60.5141   86.1238    7.7987 C.ar    1  UNL1        0.1401
     24 C          61.6511   85.3730    7.1713 C.ar    1  UNL1        0.0294
     25 C          62.7621   84.8417    8.0277 C.ar    1  UNL1       -0.0001
     26 C          62.7362   85.0611    9.5114 C.ar    1  UNL1        0.0006
     27 C          61.5992   85.8119   10.1386 C.ar    1  UNL1       -0.0001
     28 C          60.4882   86.3433    9.2823 C.ar    1  UNL1        0.0294
@<TRIPOS>BOND
     1    22    23    1
     2    23    24   ar
     3    24    25   ar
     4    25    26   ar
     5    26    21    1
     6    21     1    1
     7     1     2   ar
     8     2    10    1
     9    10    11    1
    10    11    12    1
    11    12    13    1
    12    13    16    1
    13    16    17   ar
    14    17    18   ar
    15    18    19   ar
    16    19    20   ar
    17    13    14    1
    18    14    15    1
    19     2     3   ar
    20     3     4   ar
    21     4     5   ar
    22     5     6   ar
    23     6     7   ar
    24     7     8   ar
    25     8     9   ar
    26    26    27   ar
    27    27    28   ar
    28    28    23   ar
    29     9     1   ar
    30    15    10    1
    31     9     4   ar
    32    20    16   ar
@<TRIPOS>MOLECULE
*****
 28 32 0 0 0
SMALL
GASTEIGER

@<TRIPOS>ATOM
      1 N          62.2947   87.2980   10.2538 N.ar    1  UNL1       -0.2954
      2 C          62.1441   88.7090   10.7399 C.ar    1  UNL1        0.2014
      3 N          60.9396   89.3032   10.0721 N.ar    1  UNL1       -0.2136
      4 C          60.3457   88.2595    9.1732 C.ar    1  UNL1        0.0999
      5 C          59.1506   88.2774    8.2670 C.ar    1  UNL1        0.0207
      6 C          58.7930   87.0561    7.4731 C.ar    1  UNL1        0.0016
      7 C          59.6305   85.8167    7.5854 C.ar    1  UNL1        0.0016
      8 C          60.8256   85.7988    8.4917 C.ar    1  UNL1        0.0188
      9 C          61.1832   87.0201    9.2856 C.ar    1  UNL1        0.0801
     10 N          63.0406   89.4038   11.7215 N.pl3   1  UNL1       -0.2794
     11 C          63.4387   88.7138   12.9925 C.3     1  UNL1        0.0955
     12 C          64.3352   89.4086   13.9741 C.3     1  UNL1        0.0459
     13 C          64.8336   90.7934   13.6847 C.3     1  UNL1        0.1086
     14 C          64.4356   91.4834   12.4137 C.3     1  UNL1        0.0459
     15 C          63.5391   90.7886   11.4322 C.3     1  UNL1        0.0955
     16 N          65.7301   91.4882   14.6663 N.ar    1  UNL1       -0.2512
     17 C          67.2300   91.4850   14.6460 C.ar    1  UNL1        0.0966
     18 C          67.7110   92.3030   15.8077 C.ar    1  UNL1        0.0427
     19 C          66.5085   92.8118   16.5459 C.ar    1  UNL1        0.1217
     20 N          65.2842   92.3082   15.8405 N.ar    1  UNL1       -0.1677
     21 C          63.3682   86.3340   10.6640 C.3     1  UNL1        0.1354
     22 F          62.0365   81.7040   14.2401 F       1  UNL1       -0.2042
     23 C          62.3694   82.8614   13.3461 C.ar    1  UNL1        0.1401
     24 C          62.4621   84.2462   13.9152 C.ar    1  UNL1        0.0294
     25 C          62.7951   85.4037   13.0211 C.ar    1  UNL1       -0.0001
     26 C          63.0353   85.1765   11.5579 C.ar    1  UNL1        0.0006
     27 C          62.9426   83.7917   10.9889 C.ar    1  UNL1       -0.0001
     28 C          62.6096   82.6342   11.8830 C.ar    1  UNL1        0.0294
@<TRIPOS>BOND
     1    22    23    1
     2    23    24   ar
     3    24    25   ar
     4    25    26   ar
     5    26    21    1
     6    21     1    1
     7     1     2   ar
     8     2    10    1
     9    10    11    1
    10    11    12    1
    11    12    13    1
    12    13    16    1
    13    16    17   ar
    14    17    18   ar
    15    18    19   ar
    16    19    20   ar
    17    13    14    1
    18    14    15    1
    19     2     3   ar
    20     3     4   ar
    21     4     5   ar
    22     5     6   ar
    23     6     7   ar
    24     7     8   ar
    25     8     9   ar
    26    26    27   ar
    27    27    28   ar
    28    28    23   ar
    29     9     1   ar
    30    15    10    1
    31     9     4   ar
    32    20    16   ar
@<TRIPOS>MOLECULE
*****
 28 32 0 0 0
SMALL
GASTEIGER

@<TRIPOS>ATOM
      1 N          60.9028   94.3002   -0.4518 N.ar    1  UNL1       -0.2954
      2 C          59.5260   93.9695    0.0430 C.ar    1  UNL1        0.2014
      3 N          59.6665   93.1648    1.3010 N.ar    1  UNL1       -0.2136
      4 C          61.1301   92.9981    1.5837 C.ar    1  UNL1        0.0999
      5 C          61.8658   92.2980    2.6875 C.ar    1  UNL1        0.0207
      6 C          63.3657   92.2996    2.7081 C.ar    1  UNL1        0.0016
      7 C          64.1298   93.0014    1.6247 C.ar    1  UNL1        0.0016
      8 C          63.3941   93.7015    0.5209 C.ar    1  UNL1        0.0188
      9 C          61.8943   93.6998    0.5004 C.ar    1  UNL1        0.0801
     10 N          58.2353   94.3728   -0.6061 N.pl3   1  UNL1       -0.2794
     11 C          57.2760   93.3233   -1.0839 C.3     1  UNL1        0.0955
     12 C          55.9853   93.7265   -1.7330 C.3     1  UNL1        0.0459
     13 C          55.6538   95.1793   -1.9045 C.3     1  UNL1        0.1086
     14 C          56.6131   96.2289   -1.4268 C.3     1  UNL1        0.0459
     15 C          57.9038   95.8256   -0.7776 C.3     1  UNL1        0.0955
     16 N          54.3631   95.5826   -2.5537 N.ar    1  UNL1       -0.2512
     17 C          53.0329   95.7035   -1.8711 C.ar    1  UNL1        0.0966
     18 C          52.0236   96.1314   -2.8950 C.ar    1  UNL1        0.0427
     19 C          52.7301   96.2749   -4.2104 C.ar    1  UNL1        0.1217
     20 N          54.1759   95.9358   -3.9994 N.ar    1  UNL1       -0.1677
     21 C          61.2307   95.0923   -1.6827 C.3     1  UNL1        0.1354
     22 F          65.6893   93.3252   -5.2881 F       1  UNL1       -0.2042
     23 C          64.5746   93.7670   -4.3868 C.ar    1  UNL1        0.1401
     24 C          63.4496   92.8270   -4.0693 C.ar    1  UNL1        0.0294
     25 C          62.3349   93.2688   -3.1680 C.ar    1  UNL1       -0.0001
     26 C          62.3453   94.6505   -2.5840 C.ar    1  UNL1        0.0006
     27 C          63.4704   95.5904   -2.9015 C.ar    1  UNL1       -0.0001
     28 C          64.5851   95.1486   -3.8029 C.ar    1  UNL1        0.0294
@<TRIPOS>BOND
     1    22    23    1
     2    23    24   ar
     3    24    25   ar
     4    25    26   ar
     5    26    21    1
     6    21     1    1
     7     1     2   ar
     8     2    10    1
     9    10    11    1
    10    11    12    1
    11    12    13    1
    12    13    16    1
    13    16    17   ar
    14    17    18   ar
    15    18    19   ar
    16    19    20   ar
    17    13    14    1
    18    14    15    1
    19     2     3   ar
    20     3     4   ar
    21     4     5   ar
    22     5     6   ar
    23     6     7   ar
    24     7     8   ar
    25     8     9   ar
    26    26    27   ar
    27    27    28   ar
    28    28    23   ar
    29     9     1   ar
    30    15    10    1
    31     9     4   ar
    32    20    16   ar
@<TRIPOS>MOLECULE
*****
 28 32 0 0 0
SMALL
GASTEIGER

@<TRIPOS>ATOM
      1 N          63.1215   85.1961   12.3497 N.ar    1  UNL1       -0.2954
      2 C          63.3178   86.0725   13.5511 C.ar    1  UNL1        0.2014
      3 N          62.9426   85.2807   14.7686 N.ar    1  UNL1       -0.2136
      4 C          62.5145   83.9150   14.3197 C.ar    1  UNL1        0.0999
      5 C          62.0382   82.7123   15.0790 C.ar    1  UNL1        0.0207
      6 C          61.6726   81.4573   14.3434 C.ar    1  UNL1        0.0016
      7 C          61.7832   81.4050   12.8484 C.ar    1  UNL1        0.0016
      8 C          62.2594   82.6077   12.0890 C.ar    1  UNL1        0.0188
      9 C          62.6251   83.8627   12.8247 C.ar    1  UNL1        0.0801
     10 N          63.8039   87.4915   13.5374 N.pl3   1  UNL1       -0.2794
     11 C          63.4054   88.4100   12.4206 C.3     1  UNL1        0.0955
     12 C          63.8915   89.8290   12.4069 C.3     1  UNL1        0.0459
     13 C          64.7760   90.3295   13.5101 C.3     1  UNL1        0.1086
     14 C          65.1745   89.4109   14.6269 C.3     1  UNL1        0.0459
     15 C          64.6884   87.9919   14.6406 C.3     1  UNL1        0.0955
     16 N          65.2621   91.7485   13.4964 N.ar    1  UNL1       -0.2512
     17 C          65.3589   92.6357   12.2908 C.ar    1  UNL1        0.0966
     18 C          65.8934   93.9650   12.7352 C.ar    1  UNL1        0.0427
     19 C          66.1268   93.8993   14.2155 C.ar    1  UNL1        0.1217
     20 N          65.7367   92.5294   14.6859 N.ar    1  UNL1       -0.1677
     21 C          63.3770   85.5848   10.9236 C.3     1  UNL1        0.1354
     22 F          58.7805   86.9476    7.3160 F       1  UNL1       -0.2042
     23 C          59.9296   86.6069    8.2179 C.ar    1  UNL1        0.1401
     24 C          61.0884   85.8145    7.6894 C.ar    1  UNL1        0.0294
     25 C          62.2375   85.4738    8.5914 C.ar    1  UNL1       -0.0001
     26 C          62.2279   85.9255   10.0218 C.ar    1  UNL1        0.0006
     27 C          61.0691   86.7180   10.5501 C.ar    1  UNL1       -0.0001
     28 C          59.9200   87.0587    9.6482 C.ar    1  UNL1        0.0294
@<TRIPOS>BOND
     1    22    23    1
     2    23    24   ar
     3    24    25   ar
     4    25    26   ar
     5    26    21    1
     6    21     1    1
     7     1     2   ar
     8     2    10    1
     9    10    11    1
    10    11    12    1
    11    12    13    1
    12    13    16    1
    13    16    17   ar
    14    17    18   ar
    15    18    19   ar
    16    19    20   ar
    17    13    14    1
    18    14    15    1
    19     2     3   ar
    20     3     4   ar
    21     4     5   ar
    22     5     6   ar
    23     6     7   ar
    24     7     8   ar
    25     8     9   ar
    26    26    27   ar
    27    27    28   ar
    28    28    23   ar
    29     9     1   ar
    30    15    10    1
    31     9     4   ar
    32    20    16   ar
@<TRIPOS>MOLECULE
*****
 28 32 0 0 0
SMALL
GASTEIGER

@<TRIPOS>ATOM
      1 N          61.2445   93.7578    0.3901 N.ar    1  UNL1       -0.2954
      2 C          62.6764   93.5319    0.0046 C.ar    1  UNL1        0.2014
      3 N          63.3260   92.7232    1.0881 N.ar    1  UNL1       -0.2136
      4 C          62.2957   92.4493    2.1432 C.ar    1  UNL1        0.0999
      5 C          62.3627   91.7002    3.4410 C.ar    1  UNL1        0.0207
      6 C          61.1432   91.5907    4.3075 C.ar    1  UNL1        0.0016
      7 C          59.8567   92.2301    3.8762 C.ar    1  UNL1        0.0016
      8 C          59.7897   92.9792    2.5783 C.ar    1  UNL1        0.0188
      9 C          61.0092   93.0888    1.7119 C.ar    1  UNL1        0.0801
     10 N          63.3418   94.0277   -1.2450 N.pl3   1  UNL1       -0.2794
     11 C          64.1269   95.3055   -1.2203 C.3     1  UNL1        0.0955
     12 C          64.7923   95.8013   -2.4699 C.3     1  UNL1        0.0459
     13 C          64.6726   95.0192   -3.7442 C.3     1  UNL1        0.1086
     14 C          63.8875   93.7413   -3.7689 C.3     1  UNL1        0.0459
     15 C          63.2221   93.2456   -2.5193 C.3     1  UNL1        0.0955
     16 N          65.3380   95.5149   -4.9938 N.ar    1  UNL1       -0.2512
     17 C          65.2190   94.9032   -6.3582 C.ar    1  UNL1        0.0966
     18 C          66.0467   95.7197   -7.3060 C.ar    1  UNL1        0.0427
     19 C          66.6772   96.8360   -6.5274 C.ar    1  UNL1        0.1217
     20 N          66.2392   96.7094   -5.0984 N.ar    1  UNL1       -0.1677
     21 C          60.2266   94.5192   -0.4062 C.3     1  UNL1        0.1354
     22 F          56.1197   91.5652   -3.6322 F       1  UNL1       -0.2042
     23 C          57.1464   92.3037   -2.8257 C.ar    1  UNL1        0.1401
     24 C          58.4377   92.7260   -3.4615 C.ar    1  UNL1        0.0294
     25 C          59.4644   93.4645   -2.6549 C.ar    1  UNL1       -0.0001
     26 C          59.1999   93.7807   -1.2126 C.ar    1  UNL1        0.0006
     27 C          57.9085   93.3584   -0.5769 C.ar    1  UNL1       -0.0001
     28 C          56.8818   92.6199   -1.3835 C.ar    1  UNL1        0.0294
@<TRIPOS>BOND
     1    22    23    1
     2    23    24   ar
     3    24    25   ar
     4    25    26   ar
     5    26    21    1
     6    21     1    1
     7     1     2   ar
     8     2    10    1
     9    10    11    1
    10    11    12    1
    11    12    13    1
    12    13    16    1
    13    16    17   ar
    14    17    18   ar
    15    18    19   ar
    16    19    20   ar
    17    13    14    1
    18    14    15    1
    19     2     3   ar
    20     3     4   ar
    21     4     5   ar
    22     5     6   ar
    23     6     7   ar
    24     7     8   ar
    25     8     9   ar
    26    26    27   ar
    27    27    28   ar
    28    28    23   ar
    29     9     1   ar
    30    15    10    1
    31     9     4   ar
    32    20    16   ar
