@<TRIPOS>MOLECULE
*****
 37 41 0 0 0
SMALL
GASTEIGER

@<TRIPOS>ATOM
      1 N          63.0677   90.1669   12.6734 N.am    1  LEU1       -0.2602
      2 C          63.7635   91.1085   11.7357 C.2     2  UNK2        0.2444
      3 O          63.4742   91.0522   10.2648 O.2     2  UNK2       -0.2731
      4 C          64.7484   92.1063   12.2687 C.3     2  UNK2        0.1494
      5 N          65.0376   92.1626   13.7394 N.am    2  UNK2       -0.2970
      6 C          64.3419   91.2210   14.6772 C.2     1  LEU1        0.2409
      7 O          64.6311   91.2773   16.1480 O.2     1  LEU1       -0.2733
      8 CA         63.3569   90.2232   14.1441 C.3     1  LEU1        0.1524
      9 H          65.6841   92.8175   14.0893 H       2  UNK2        0.1499
     10 C          65.4442   93.0479   11.3310 C.3     2  UNK2        0.0356
     11 C          66.3442   92.6574   10.1963 C.3     2  UNK2        0.0285
     12 C          66.8184   93.9135    9.5273 C.ar    2  UNK2       -0.0261
     13 C          67.7244   94.1455    8.3546 C.ar    2  UNK2       -0.0046
     14 C          68.0234   95.5443    7.9031 C.ar    2  UNK2       -0.0003
     15 C          67.4164   96.7111    8.6244 C.ar    2  UNK2       -0.0003
     16 C          66.5104   96.4791    9.7971 C.ar    2  UNK2       -0.0046
     17 C          66.2114   95.0803   10.2485 C.ar    2  UNK2       -0.0261
     18 C          65.3621   94.5453   11.3632 C.3     2  UNK2        0.0285
     19 C          62.0827   89.1691   12.1403 C.3     0  UNK0        0.1962
     20 C          62.5653   87.8618   11.5853 C.2     0  UNK0        0.2499
     21 O          63.5778   87.0539   12.3417 O.2     0  UNK0       -0.2727
     22 N          62.0353   87.3622   10.2739 N.am    0  UNK0       -0.2727
     23 C          61.0227   88.1701    9.5176 C.3     0  UNK0        0.1255
     24 C          60.4927   87.6706    8.2063 C.3     0  UNK0        0.1636
     25 O          60.9753   86.3633    7.6513 O.3     0  UNK0       -0.3501
     26 C          61.9878   85.5555    8.4077 C.3     0  UNK0        0.1636
     27 C          62.5178   86.0549    9.7190 C.3     0  UNK0        0.1255
     28 C          56.8800   88.7803   12.9538 C.3     0  UNK0        0.0950
     29 C          58.2237   89.2999   12.5361 C.ar    0  UNK0        0.2061
     30 N          59.5372   88.6007   12.7255 N.ar    0  UNK0       -0.2142
     31 C          60.6152   89.4786   12.1622 C.ar    0  UNK0        0.1263
     32 C          59.9679   90.7204   11.6246 C.ar    0  UNK0        0.1979
     33 O          58.4899   90.6100   11.8557 O.2     0  UNK0       -0.4355
     34 CB         62.6612   89.2816   15.0819 C.3     1  LEU1        0.0292
     35 CG         63.4342   88.1873   15.7564 C.3     1  LEU1        0.0021
     36 CD1        63.0739   87.7634   17.1494 C.3     1  LEU1        0.0001
     37 CD2        64.5675   87.5170   15.0379 C.3     1  LEU1        0.0001
@<TRIPOS>BOND
     1    28    29    1
     2    29    30   ar
     3    30    31   ar
     4    31    19    1
     5    19    20    1
     6    20    21    2
     7    20    22   am
     8    22    23    1
     9    23    24    1
    10    24    25    1
    11    25    26    1
    12    26    27    1
    13    19     1    1
    14     1     2   am
    15     2     3    2
    16     2     4    1
    17     4    10    1
    18    10    11    1
    19    11    12    1
    20    12    13   ar
    21    13    14   ar
    22    14    15   ar
    23    15    16   ar
    24    16    17   ar
    25    17    18    1
    26     4     5    1
    27     5     6   am
    28     6     7    2
    29     6     8    1
    30     8    34    1
    31    34    35    1
    32    35    36    1
    33    35    37    1
    34    31    32   ar
    35    32    33   ar
    36    33    29   ar
    37    27    22    1
    38     8     1    1
    39    18    10    1
    40    17    12   ar
    41     5     9    1
@<TRIPOS>MOLECULE
*****
 37 41 0 0 0
SMALL
GASTEIGER

@<TRIPOS>ATOM
      1 N          61.8514   87.8517   11.2295 N.am    1  LEU1       -0.2602
      2 C          62.8995   88.5922   12.0061 C.2     2  UNK2        0.2444
      3 O          64.1241   87.8724   12.4883 O.2     2  UNK2       -0.2731
      4 C          62.7232   90.0524   12.3004 C.3     2  UNK2        0.1494
      5 N          61.4987   90.7721   11.8182 N.am    2  UNK2       -0.2970
      6 C          60.4505   90.0316   11.0416 C.2     1  LEU1        0.2409
      7 O          59.2260   90.7514   10.5594 O.2     1  LEU1       -0.2733
      8 CA         60.6269   88.5714   10.7473 C.3     1  LEU1        0.1524
      9 H          61.3829   91.7305   12.0114 H       2  UNK2        0.1499
     10 C          63.7713   90.7929   13.0770 C.3     2  UNK2        0.0356
     11 C          63.9368   90.7813   14.5678 C.3     2  UNK2        0.0285
     12 C          65.1058   91.6562   14.9113 C.ar    2  UNK2       -0.0261
     13 C          65.7350   92.0213   16.2230 C.ar    2  UNK2       -0.0046
     14 C          66.9212   92.9387   16.2563 C.ar    2  UNK2       -0.0003
     15 C          67.4782   93.4911   14.9778 C.ar    2  UNK2       -0.0003
     16 C          66.8490   93.1260   13.6660 C.ar    2  UNK2       -0.0046
     17 C          65.6628   92.2086   13.6328 C.ar    2  UNK2       -0.0261
     18 C          64.8381   91.6750   12.4991 C.3     2  UNK2        0.0285
     19 C          62.0278   86.3914   10.9352 C.3     0  UNK0        0.1962
     20 C          62.0104   85.3933   12.0547 C.2     0  UNK0        0.2499
     21 O          61.2457   85.6884   13.3110 O.2     0  UNK0       -0.2727
     22 N          62.7577   84.0998   11.9180 N.am    0  UNK0       -0.2727
     23 C          63.5224   83.8046   10.6618 C.3     0  UNK0        0.1255
     24 C          64.2697   82.5113   10.5251 C.3     0  UNK0        0.1636
     25 O          64.2523   81.5131   11.6446 O.3     0  UNK0       -0.3501
     26 C          63.4876   81.8083   12.9008 C.3     0  UNK0        0.1636
     27 C          62.7403   83.1017   13.0375 C.3     0  UNK0        0.1255
     28 C          61.1591   84.2447    6.1899 C.3     0  UNK0        0.0950
     29 C          61.8223   84.9426    7.3402 C.ar    0  UNK0        0.2061
     30 N          61.2070   85.2116    8.6815 N.ar    0  UNK0       -0.2142
     31 C          62.2215   85.9294    9.5214 C.ar    0  UNK0        0.1263
     32 C          63.4639   86.1040    8.6992 C.ar    0  UNK0        0.1979
     33 O          63.2172   85.4941    7.3511 O.2     0  UNK0       -0.4355
     34 CB         59.5787   87.8309    9.9708 C.3     1  LEU1        0.0292
     35 CG         59.4867   88.0017    8.4834 C.3     1  LEU1        0.0021
     36 CD1        60.0733   89.2181    7.8304 C.3     1  LEU1        0.0001
     37 CD2        58.8081   86.9561    7.6489 C.3     1  LEU1        0.0001
@<TRIPOS>BOND
     1    28    29    1
     2    29    30   ar
     3    30    31   ar
     4    31    19    1
     5    19    20    1
     6    20    21    2
     7    20    22   am
     8    22    23    1
     9    23    24    1
    10    24    25    1
    11    25    26    1
    12    26    27    1
    13    19     1    1
    14     1     2   am
    15     2     3    2
    16     2     4    1
    17     4    10    1
    18    10    11    1
    19    11    12    1
    20    12    13   ar
    21    13    14   ar
    22    14    15   ar
    23    15    16   ar
    24    16    17   ar
    25    17    18    1
    26     4     5    1
    27     5     6   am
    28     6     7    2
    29     6     8    1
    30     8    34    1
    31    34    35    1
    32    35    36    1
    33    35    37    1
    34    31    32   ar
    35    32    33   ar
    36    33    29   ar
    37    27    22    1
    38     8     1    1
    39    18    10    1
    40    17    12   ar
    41     5     9    1
@<TRIPOS>MOLECULE
*****
 37 41 0 0 0
SMALL
GASTEIGER

@<TRIPOS>ATOM
      1 N          64.5886   91.6222   12.6364 N.am    1  LEU1       -0.2602
      2 C          63.6992   90.5833   12.0203 C.2     2  UNK2        0.2444
      3 O          63.3181   89.3621   12.8038 O.2     2  UNK2       -0.2731
      4 C          63.1909   90.7654   10.6209 C.3     2  UNK2        0.1494
      5 N          63.5720   91.9865    9.8376 N.am    2  UNK2       -0.2970
      6 C          64.4615   93.0254   10.4537 C.2     1  LEU1        0.2409
      7 O          64.8426   94.2466    9.6702 O.2     1  LEU1       -0.2733
      8 CA         64.9698   92.8433   11.8531 C.3     1  LEU1        0.1524
      9 H          63.2384   92.1060    8.9191 H       2  UNK2        0.1499
     10 C          62.3015   89.7265   10.0049 C.3     2  UNK2        0.0356
     11 C          62.6093   88.2636    9.8807 C.3     2  UNK2        0.0285
     12 C          61.4462   87.6010    9.2039 C.ar    2  UNK2       -0.0261
     13 C          61.1893   86.1746    8.8174 C.ar    2  UNK2       -0.0046
     14 C          59.9057   85.8016    8.1368 C.ar    2  UNK2       -0.0003
     15 C          58.8791   86.8549    7.8427 C.ar    2  UNK2       -0.0003
     16 C          59.1360   88.2812    8.2292 C.ar    2  UNK2       -0.0046
     17 C          60.4195   88.6543    8.9097 C.ar    2  UNK2       -0.0261
     18 C          60.9482   89.9679    9.4048 C.3     2  UNK2        0.0285
     19 C          65.0970   91.4400   14.0359 C.3     0  UNK0        0.1962
     20 C          64.1616   90.9980   15.1220 C.2     0  UNK0        0.2499
     21 O          63.3911   92.0166   15.9087 O.2     0  UNK0       -0.2727
     22 N          63.9966   89.5375   15.4214 N.am    0  UNK0       -0.2727
     23 C          64.7671   88.5189   14.6347 C.3     0  UNK0        0.1255
     24 C          64.6022   87.0584   14.9340 C.3     0  UNK0        0.1636
     25 O          63.6668   86.6164   16.0201 O.3     0  UNK0       -0.3501
     26 C          62.8963   87.6350   16.8068 C.3     0  UNK0        0.1636
     27 C          63.0612   89.0955   16.5075 C.3     0  UNK0        0.1255
     28 C          69.5258   92.7150   16.6128 C.3     0  UNK0        0.0950
     29 C          68.5764   92.2859   15.5337 C.ar    0  UNK0        0.2061
     30 N          67.0885   92.1539   15.6698 N.ar    0  UNK0       -0.2142
     31 C          66.5407   91.6999   14.3492 C.ar    0  UNK0        0.1263
     32 C          67.6901   91.5513   13.3970 C.ar    0  UNK0        0.1979
     33 O          68.9483   91.9135   14.1291 O.2     0  UNK0       -0.4355
     34 CB         65.8592   93.8822   12.4691 C.3     1  LEU1        0.0292
     35 CG         66.4743   94.9475   11.6108 C.3     1  LEU1        0.0021
     36 CD1        67.4227   94.5702   10.5116 C.3     1  LEU1        0.0001
     37 CD2        66.1410   96.3901   11.8515 C.3     1  LEU1        0.0001
@<TRIPOS>BOND
     1    28    29    1
     2    29    30   ar
     3    30    31   ar
     4    31    19    1
     5    19    20    1
     6    20    21    2
     7    20    22   am
     8    22    23    1
     9    23    24    1
    10    24    25    1
    11    25    26    1
    12    26    27    1
    13    19     1    1
    14     1     2   am
    15     2     3    2
    16     2     4    1
    17     4    10    1
    18    10    11    1
    19    11    12    1
    20    12    13   ar
    21    13    14   ar
    22    14    15   ar
    23    15    16   ar
    24    16    17   ar
    25    17    18    1
    26     4     5    1
    27     5     6   am
    28     6     7    2
    29     6     8    1
    30     8    34    1
    31    34    35    1
    32    35    36    1
    33    35    37    1
    34    31    32   ar
    35    32    33   ar
    36    33    29   ar
    37    27    22    1
    38     8     1    1
    39    18    10    1
    40    17    12   ar
    41     5     9    1
@<TRIPOS>MOLECULE
*****
 37 41 0 0 0
SMALL
GASTEIGER

@<TRIPOS>ATOM
      1 N          64.1601   90.9576   12.9337 N.am    1  LEU1       -0.2602
      2 C          63.2977   89.9919   12.1763 C.2     2  UNK2        0.2444
      3 O          62.7575   88.7718   12.8617 O.2     2  UNK2       -0.2731
      4 C          62.9755   90.2461   10.7336 C.3     2  UNK2        0.1494
      5 N          63.5157   91.4661   10.0482 N.am    2  UNK2       -0.2970
      6 C          64.3781   92.4319   10.8056 C.2     1  LEU1        0.2409
      7 O          64.9183   93.6519   10.1202 O.2     1  LEU1       -0.2733
      8 CA         64.7003   92.1776   12.2483 C.3     1  LEU1        0.1524
      9 H          63.3043   91.6330    9.1013 H       2  UNK2        0.1499
     10 C          62.1132   89.2804    9.9762 C.3     2  UNK2        0.0356
     11 C          62.4630   87.8605    9.6421 C.3     2  UNK2        0.0285
     12 C          61.3156   87.2675    8.8794 C.ar    2  UNK2       -0.0261
     13 C          61.0982   85.9045    8.2922 C.ar    2  UNK2       -0.0046
     14 C          59.8219   85.5948    7.5676 C.ar    2  UNK2       -0.0003
     15 C          58.7629   86.6483    7.4302 C.ar    2  UNK2       -0.0003
     16 C          58.9802   88.0113    8.0174 C.ar    2  UNK2       -0.0046
     17 C          60.2566   88.3209    8.7420 C.ar    2  UNK2       -0.0261
     18 C          60.7495   89.5649    9.4198 C.3     2  UNK2        0.0285
     19 C          64.4823   90.7033   14.3765 C.3     0  UNK0        0.1962
     20 C          65.0859   91.7920   15.2133 C.2     0  UNK0        0.2499
     21 O          64.2244   92.5778   16.1568 O.2     0  UNK0       -0.2727
     22 N          66.5512   92.0949   15.1067 N.am    0  UNK0       -0.2727
     23 C          67.4128   91.3091   14.1632 C.3     0  UNK0        0.1255
     24 C          68.8780   91.6120   14.0565 C.3     0  UNK0        0.1636
     25 O          69.4816   92.7006   14.8934 O.3     0  UNK0       -0.3501
     26 C          68.6200   93.4864   15.8369 C.3     0  UNK0        0.1636
     27 C          67.1548   93.1836   15.9435 C.3     0  UNK0        0.1255
     28 C          64.5016   85.5028   15.2905 C.3     0  UNK0        0.0950
     29 C          64.2097   86.9698   15.4025 C.ar    0  UNK0        0.2061
     30 N          64.7505   88.0471   14.5097 N.ar    0  UNK0       -0.2142
     31 C          64.2008   89.3603   14.9823 C.ar    0  UNK0        0.1263
     32 C          63.3202   89.0946   16.1672 C.ar    0  UNK0        0.1979
     33 O          63.3257   87.6173   16.4269 O.2     0  UNK0       -0.4355
     34 CB         65.5627   93.1434   13.0057 C.3     1  LEU1        0.0292
     35 CG         66.4988   94.0525   12.2660 C.3     1  LEU1        0.0021
     36 CD1        67.5222   93.4767   11.3327 C.3     1  LEU1        0.0001
     37 CD2        66.4114   95.5374   12.4596 C.3     1  LEU1        0.0001
@<TRIPOS>BOND
     1    28    29    1
     2    29    30   ar
     3    30    31   ar
     4    31    19    1
     5    19    20    1
     6    20    21    2
     7    20    22   am
     8    22    23    1
     9    23    24    1
    10    24    25    1
    11    25    26    1
    12    26    27    1
    13    19     1    1
    14     1     2   am
    15     2     3    2
    16     2     4    1
    17     4    10    1
    18    10    11    1
    19    11    12    1
    20    12    13   ar
    21    13    14   ar
    22    14    15   ar
    23    15    16   ar
    24    16    17   ar
    25    17    18    1
    26     4     5    1
    27     5     6   am
    28     6     7    2
    29     6     8    1
    30     8    34    1
    31    34    35    1
    32    35    36    1
    33    35    37    1
    34    31    32   ar
    35    32    33   ar
    36    33    29   ar
    37    27    22    1
    38     8     1    1
    39    18    10    1
    40    17    12   ar
    41     5     9    1
@<TRIPOS>MOLECULE
*****
 37 41 0 0 0
SMALL
GASTEIGER

@<TRIPOS>ATOM
      1 N          63.1538   90.0211   12.4367 N.am    1  LEU1       -0.2602
      2 C          63.8625   91.0229   11.5740 C.2     2  UNK2        0.2444
      3 O          63.6432   91.0230   10.0901 O.2     2  UNK2       -0.2731
      4 C          64.7903   92.0245   12.1952 C.3     2  UNK2        0.1494
      5 N          65.0095   92.0243   13.6790 N.am    2  UNK2       -0.2970
      6 C          64.3009   91.0225   14.5417 C.2     1  LEU1        0.2409
      7 O          64.5202   91.0224   16.0257 O.2     1  LEU1       -0.2733
      8 CA         63.3731   90.0209   13.9206 C.3     1  LEU1        0.1524
      9 H          65.6185   92.6817   14.0867 H       2  UNK2        0.1499
     10 C          65.4989   93.0263   11.3324 C.3     2  UNK2        0.0356
     11 C          65.5475   94.5081   11.5600 C.3     2  UNK2        0.0285
     12 C          66.3620   95.1198   10.4589 C.ar    2  UNK2       -0.0261
     13 C          66.7482   96.5392   10.1658 C.ar    2  UNK2       -0.0046
     14 C          67.5893   96.8549    8.9647 C.ar    2  UNK2       -0.0003
     15 C          68.0442   95.7511    8.0565 C.ar    2  UNK2       -0.0003
     16 C          67.6579   94.3316    8.3496 C.ar    2  UNK2       -0.0046
     17 C          66.8168   94.0160    9.5508 C.ar    2  UNK2       -0.0261
     18 C          66.2834   92.7221   10.0907 C.3     2  UNK2        0.0285
     19 C          62.2259   89.0195   11.8155 C.3     0  UNK0        0.1962
     20 C          61.1288   89.4793   10.9018 C.2     0  UNK0        0.2499
     21 O          60.3935   90.7534   11.1948 O.2     0  UNK0       -0.2727
     22 N          60.7670   88.6649    9.6952 N.am    0  UNK0       -0.2727
     23 C          61.5023   87.3908    9.4022 C.3     0  UNK0        0.1255
     24 C          61.1406   86.5765    8.1956 C.3     0  UNK0        0.1636
     25 O          60.0434   87.0363    7.2820 O.3     0  UNK0       -0.3501
     26 C          59.3081   88.3104    7.5749 C.3     0  UNK0        0.1636
     27 C          59.6699   89.1248    8.7815 C.3     0  UNK0        0.1255
     28 C          64.3364   84.3967   13.2496 C.3     0  UNK0        0.0950
     29 C          63.3653   85.4331   12.7672 C.ar    0  UNK0        0.2061
     30 N          63.6428   86.8997   12.6182 N.ar    0  UNK0       -0.2142
     31 C          62.3953   87.5580   12.1080 C.ar    0  UNK0        0.1263
     32 C          61.3468   86.4983   11.9417 C.ar    0  UNK0        0.1979
     33 O          61.9463   85.1851   12.3491 O.2     0  UNK0       -0.4355
     34 CB         62.6644   89.0191   14.7833 C.3     1  LEU1        0.0292
     35 CG         63.4393   88.1997   15.7723 C.3     1  LEU1        0.0021
     36 CD1        64.6336   87.4121   15.3215 C.3     1  LEU1        0.0001
     37 CD2        63.0198   88.1679   17.2122 C.3     1  LEU1        0.0001
@<TRIPOS>BOND
     1    28    29    1
     2    29    30   ar
     3    30    31   ar
     4    31    19    1
     5    19    20    1
     6    20    21    2
     7    20    22   am
     8    22    23    1
     9    23    24    1
    10    24    25    1
    11    25    26    1
    12    26    27    1
    13    19     1    1
    14     1     2   am
    15     2     3    2
    16     2     4    1
    17     4    10    1
    18    10    11    1
    19    11    12    1
    20    12    13   ar
    21    13    14   ar
    22    14    15   ar
    23    15    16   ar
    24    16    17   ar
    25    17    18    1
    26     4     5    1
    27     5     6   am
    28     6     7    2
    29     6     8    1
    30     8    34    1
    31    34    35    1
    32    35    36    1
    33    35    37    1
    34    31    32   ar
    35    32    33   ar
    36    33    29   ar
    37    27    22    1
    38     8     1    1
    39    18    10    1
    40    17    12   ar
    41     5     9    1
@<TRIPOS>MOLECULE
*****
 37 41 0 0 0
SMALL
GASTEIGER

@<TRIPOS>ATOM
      1 N          64.9039   91.2760   12.7223 N.am    1  LEU1       -0.2602
      2 C          64.0210   90.7961   11.6086 C.2     2  UNK2        0.2444
      3 O          64.1374   91.4063   10.2432 O.2     2  UNK2       -0.2731
      4 C          63.0218   89.7061   11.8603 C.3     2  UNK2        0.1494
      5 N          62.9055   89.0960   13.2257 N.am    2  UNK2       -0.2970
      6 C          63.7884   89.5759   14.3393 C.2     1  LEU1        0.2409
      7 O          63.6720   88.9658   15.7047 O.2     1  LEU1       -0.2733
      8 CA         64.7876   90.6659   14.0876 C.3     1  LEU1        0.1524
      9 H          62.2497   88.3806   13.3909 H       2  UNK2        0.1499
     10 C          62.1389   89.2263   10.7467 C.3     2  UNK2        0.0356
     11 C          61.9598   87.8008   10.3154 C.3     2  UNK2        0.0285
     12 C          60.9903   87.7811    9.1709 C.ar    2  UNK2       -0.0261
     13 C          60.4357   86.6589    8.3445 C.ar    2  UNK2       -0.0046
     14 C          59.4611   86.9499    7.2421 C.ar    2  UNK2       -0.0003
     15 C          59.0411   88.3632    6.9661 C.ar    2  UNK2       -0.0003
     16 C          59.5956   89.4855    7.7925 C.ar    2  UNK2       -0.0046
     17 C          60.5702   89.1944    8.8949 C.ar    2  UNK2       -0.0261
     18 C          61.2801   90.0875    9.8688 C.3     2  UNK2        0.0285
     19 C          65.9032   92.3661   12.4705 C.3     0  UNK0        0.1962
     20 C          65.7120   93.3074   11.3184 C.2     0  UNK0        0.2499
     21 O          64.5608   94.2690   11.3187 O.2     0  UNK0       -0.2727
     22 N          66.6720   93.2871   10.1660 N.am    0  UNK0       -0.2727
     23 C          67.8232   92.3255   10.1657 C.3     0  UNK0        0.1255
     24 C          68.7832   92.3052    9.0134 C.3     0  UNK0        0.1636
     25 O          68.5919   93.2465    7.8613 O.3     0  UNK0       -0.3501
     26 C          67.4407   94.2081    7.8616 C.3     0  UNK0        0.1636
     27 C          66.4808   94.2284    9.0139 C.3     0  UNK0        0.1255
     28 C          69.2433   94.2243   16.1135 C.3     0  UNK0        0.0950
     29 C          68.6290   93.3689   15.0454 C.ar    0  UNK0        0.2061
     30 N          67.3135   93.6139   14.3677 N.ar    0  UNK0       -0.2142
     31 C          67.0937   92.5148   13.3709 C.ar    0  UNK0        0.1263
     32 C          68.2734   91.5905   13.4326 C.ar    0  UNK0        0.1979
     33 O          69.2223   92.1183   14.4675 O.2     0  UNK0       -0.4355
     34 CB         65.6705   91.1458   15.2012 C.3     1  LEU1        0.0292
     35 CG         65.0908   91.9583   16.3210 C.3     1  LEU1        0.0021
     36 CD1        65.9955   92.7386   17.2279 C.3     1  LEU1        0.0001
     37 CD2        63.6062   91.9904   16.5338 C.3     1  LEU1        0.0001
@<TRIPOS>BOND
     1    28    29    1
     2    29    30   ar
     3    30    31   ar
     4    31    19    1
     5    19    20    1
     6    20    21    2
     7    20    22   am
     8    22    23    1
     9    23    24    1
    10    24    25    1
    11    25    26    1
    12    26    27    1
    13    19     1    1
    14     1     2   am
    15     2     3    2
    16     2     4    1
    17     4    10    1
    18    10    11    1
    19    11    12    1
    20    12    13   ar
    21    13    14   ar
    22    14    15   ar
    23    15    16   ar
    24    16    17   ar
    25    17    18    1
    26     4     5    1
    27     5     6   am
    28     6     7    2
    29     6     8    1
    30     8    34    1
    31    34    35    1
    32    35    36    1
    33    35    37    1
    34    31    32   ar
    35    32    33   ar
    36    33    29   ar
    37    27    22    1
    38     8     1    1
    39    18    10    1
    40    17    12   ar
    41     5     9    1
@<TRIPOS>MOLECULE
*****
 37 41 0 0 0
SMALL
GASTEIGER

@<TRIPOS>ATOM
      1 N          62.9967   87.4482   12.5352 N.am    1  LEU1       -0.2602
      2 C          62.8089   86.0308   12.0817 C.2     2  UNK2        0.2444
      3 O          61.9437   85.7319   10.8933 O.2     2  UNK2       -0.2731
      4 C          63.4863   84.9123   12.8166 C.3     2  UNK2        0.1494
      5 N          64.3515   85.2112   14.0049 N.am    2  UNK2       -0.2970
      6 C          64.5392   86.6286   14.4583 C.2     1  LEU1        0.2409
      7 O          65.4045   86.9275   15.6467 O.2     1  LEU1       -0.2733
      8 CA         63.8619   87.7471   13.7235 C.3     1  LEU1        0.1524
      9 H          64.7961   84.4771   14.4872 H       2  UNK2        0.1499
     10 C          63.2985   83.4949   12.3631 C.3     2  UNK2        0.0356
     11 C          63.4924   82.9829   10.9666 C.3     2  UNK2        0.0285
     12 C          63.1976   81.5121   10.9669 C.ar    2  UNK2       -0.0261
     13 C          63.2231   80.4831    9.8759 C.ar    2  UNK2       -0.0046
     14 C          62.8724   79.0571   10.1815 C.ar    2  UNK2       -0.0003
     15 C          62.4963   78.6601   11.5783 C.ar    2  UNK2       -0.0003
     16 C          62.4708   79.6891   12.6694 C.ar    2  UNK2       -0.0046
     17 C          62.8215   81.1151   12.3637 C.ar    2  UNK2       -0.0261
     18 C          62.8839   82.3405   13.2265 C.3     2  UNK2        0.0285
     19 C          62.3193   88.5668   11.8003 C.3     0  UNK0        0.1962
     20 C          60.8803   88.4365   11.3976 C.2     0  UNK0        0.2499
     21 O          59.7973   88.9131   12.3196 O.2     0  UNK0       -0.2727
     22 N          60.5241   87.8295   10.0728 N.am    0  UNK0       -0.2727
     23 C          61.6071   87.3529    9.1508 C.3     0  UNK0        0.1255
     24 C          61.2510   86.7460    7.8261 C.3     0  UNK0        0.1636
     25 O          59.8120   86.6157    7.4235 O.3     0  UNK0       -0.3501
     26 C          58.7290   87.0924    8.3455 C.3     0  UNK0        0.1636
     27 C          59.0851   87.6993    9.6701 C.3     0  UNK0        0.1255
     28 C          65.5003   92.7629   12.1928 C.3     0  UNK0        0.0950
     29 C          64.5431   91.7444   11.6485 C.ar    0  UNK0        0.2061
     30 N          63.9980   90.5610   12.3918 N.ar    0  UNK0       -0.2142
     31 C          63.0810   89.8156   11.4681 C.ar    0  UNK0        0.1263
     32 C          63.0593   90.5382   10.1538 C.ar    0  UNK0        0.1979
     33 O          63.9630   91.7303   10.2653 O.2     0  UNK0       -0.4355
     34 CB         64.0497   89.1646   14.1769 C.3     1  LEU1        0.0292
     35 CG         63.5655   89.5890   15.5317 C.3     1  LEU1        0.0021
     36 CD1        63.8578   90.9721   16.0333 C.3     1  LEU1        0.0001
     37 CD2        62.7889   88.6303   16.3849 C.3     1  LEU1        0.0001
@<TRIPOS>BOND
     1    28    29    1
     2    29    30   ar
     3    30    31   ar
     4    31    19    1
     5    19    20    1
     6    20    21    2
     7    20    22   am
     8    22    23    1
     9    23    24    1
    10    24    25    1
    11    25    26    1
    12    26    27    1
    13    19     1    1
    14     1     2   am
    15     2     3    2
    16     2     4    1
    17     4    10    1
    18    10    11    1
    19    11    12    1
    20    12    13   ar
    21    13    14   ar
    22    14    15   ar
    23    15    16   ar
    24    16    17   ar
    25    17    18    1
    26     4     5    1
    27     5     6   am
    28     6     7    2
    29     6     8    1
    30     8    34    1
    31    34    35    1
    32    35    36    1
    33    35    37    1
    34    31    32   ar
    35    32    33   ar
    36    33    29   ar
    37    27    22    1
    38     8     1    1
    39    18    10    1
    40    17    12   ar
    41     5     9    1
@<TRIPOS>MOLECULE
*****
 37 41 0 0 0
SMALL
GASTEIGER

@<TRIPOS>ATOM
      1 N          63.1133   86.8570   12.4053 N.am    1  LEU1       -0.2602
      2 C          63.9063   87.9893   12.9874 C.2     2  UNK2        0.2444
      3 O          64.8443   87.7381   14.1308 O.2     2  UNK2       -0.2731
      4 C          63.7614   89.3728   12.4263 C.3     2  UNK2        0.1494
      5 N          62.8235   89.6239   11.2830 N.am    2  UNK2       -0.2970
      6 C          62.0304   88.4916   10.7009 C.2     1  LEU1        0.2409
      7 O          61.0924   88.7428    9.5575 O.2     1  LEU1       -0.2733
      8 CA         62.1753   87.1081   11.2620 C.3     1  LEU1        0.1524
      9 H          62.7283   90.5320   10.9146 H       2  UNK2        0.1499
     10 C          64.5544   90.5052   13.0084 C.3     2  UNK2        0.0356
     11 C          65.1226   90.5621   14.3954 C.3     2  UNK2        0.0285
     12 C          65.8379   91.8715   14.5500 C.ar    2  UNK2       -0.0261
     13 C          66.5877   92.4760   15.6999 C.ar    2  UNK2       -0.0046
     14 C          67.2114   93.8328   15.5582 C.ar    2  UNK2       -0.0003
     15 C          67.0853   94.5851   14.2667 C.ar    2  UNK2       -0.0003
     16 C          66.3354   93.9806   13.1168 C.ar    2  UNK2       -0.0046
     17 C          65.7117   92.6238   13.2584 C.ar    2  UNK2       -0.0261
     18 C          64.9185   91.7794   12.3057 C.3     2  UNK2        0.0285
     19 C          63.2582   85.4734   12.9665 C.3     0  UNK0        0.1962
     20 C          63.3681   84.2970   12.0425 C.2     0  UNK0        0.2499
     21 O          64.0062   84.4589   10.6947 O.2     0  UNK0       -0.2727
     22 N          62.8399   82.9585   12.4663 N.am    0  UNK0       -0.2727
     23 C          62.2018   82.7965   13.8142 C.3     0  UNK0        0.1255
     24 C          61.6737   81.4582   14.2380 C.3     0  UNK0        0.1636
     25 O          61.7836   80.2817   13.3140 O.3     0  UNK0       -0.3501
     26 C          62.4216   80.4436   11.9662 C.3     0  UNK0        0.1636
     27 C          62.9498   81.7820   11.5423 C.3     0  UNK0        0.1255
     28 C          62.4630   86.1171   18.1467 C.3     0  UNK0        0.0950
     29 C          62.9277   85.5623   16.8329 C.ar    0  UNK0        0.2061
     30 N          62.6352   86.1388   15.4793 N.ar    0  UNK0       -0.2142
     31 C          63.2932   85.2665   14.4518 C.ar    0  UNK0        0.1263
     32 C          63.9925   84.1507   15.1702 C.ar    0  UNK0        0.1979
     33 O          63.7666   84.3336   16.6418 O.2     0  UNK0       -0.4355
     34 CB         61.3823   85.9757   10.6799 C.3     1  LEU1        0.0292
     35 CG         61.2359   85.8494    9.1924 C.3     1  LEU1        0.0021
     36 CD1        59.9212   86.1576    8.5393 C.3     1  LEU1        0.0001
     37 CD2        62.4043   85.4150    8.3580 C.3     1  LEU1        0.0001
@<TRIPOS>BOND
     1    28    29    1
     2    29    30   ar
     3    30    31   ar
     4    31    19    1
     5    19    20    1
     6    20    21    2
     7    20    22   am
     8    22    23    1
     9    23    24    1
    10    24    25    1
    11    25    26    1
    12    26    27    1
    13    19     1    1
    14     1     2   am
    15     2     3    2
    16     2     4    1
    17     4    10    1
    18    10    11    1
    19    11    12    1
    20    12    13   ar
    21    13    14   ar
    22    14    15   ar
    23    15    16   ar
    24    16    17   ar
    25    17    18    1
    26     4     5    1
    27     5     6   am
    28     6     7    2
    29     6     8    1
    30     8    34    1
    31    34    35    1
    32    35    36    1
    33    35    37    1
    34    31    32   ar
    35    32    33   ar
    36    33    29   ar
    37    27    22    1
    38     8     1    1
    39    18    10    1
    40    17    12   ar
    41     5     9    1
@<TRIPOS>MOLECULE
*****
 37 41 0 0 0
SMALL
GASTEIGER

@<TRIPOS>ATOM
      1 N          63.2765   86.7037   13.0276 N.am    1  LEU1       -0.2602
      2 C          63.8984   88.0607   13.1745 C.2     2  UNK2        0.2444
      3 O          64.7094   88.3861   14.3937 O.2     2  UNK2       -0.2731
      4 C          63.7093   89.0924   12.1022 C.3     2  UNK2        0.1494
      5 N          62.8983   88.7670   10.8831 N.am    2  UNK2       -0.2970
      6 C          62.2764   87.4099   10.7362 C.2     1  LEU1        0.2409
      7 O          61.4654   87.0845    9.5170 O.2     1  LEU1       -0.2733
      8 CA         62.4655   86.3782   11.8085 C.3     1  LEU1        0.1524
      9 H          62.7742   89.4441   10.1792 H       2  UNK2        0.1499
     10 C          64.3312   90.4495   12.2491 C.3     2  UNK2        0.0356
     11 C          64.4231   91.4976   11.1800 C.3     2  UNK2        0.0285
     12 C          65.1191   92.6926   11.7609 C.ar    2  UNK2       -0.0261
     13 C          65.4885   94.0227   11.1740 C.ar    2  UNK2       -0.0046
     14 C          66.1962   95.0431   12.0153 C.ar    2  UNK2       -0.0003
     15 C          66.5344   94.7336   13.4435 C.ar    2  UNK2       -0.0003
     16 C          66.1650   93.4035   14.0304 C.ar    2  UNK2       -0.0046
     17 C          65.4573   92.3831   13.1891 C.ar    2  UNK2       -0.0261
     18 C          64.9704   90.9968   13.4908 C.3     2  UNK2        0.0285
     19 C          63.4656   85.6720   14.1000 C.3     0  UNK0        0.1962
     20 C          64.2796   84.4429   13.8231 C.2     0  UNK0        0.2499
     21 O          65.7196   84.5714   13.4232 O.2     0  UNK0       -0.2727
     22 N          63.6537   83.0853   13.9461 N.am    0  UNK0       -0.2727
     23 C          62.2137   82.9567   14.3460 C.3     0  UNK0        0.1255
     24 C          61.5878   81.5992   14.4690 C.3     0  UNK0        0.1636
     25 O          62.4019   80.3701   14.1921 O.3     0  UNK0       -0.3501
     26 C          63.8418   80.4986   13.7922 C.3     0  UNK0        0.1636
     27 C          64.4678   81.8562   13.6692 C.3     0  UNK0        0.1255
     28 C          62.7555   87.0104   19.1582 C.3     0  UNK0        0.0950
     29 C          62.5142   86.4846   17.7743 C.ar    0  UNK0        0.2061
     30 N          63.5012   86.4893   16.6448 N.ar    0  UNK0       -0.2142
     31 C          62.8406   85.8694   15.4492 C.ar    0  UNK0        0.1263
     32 C          61.4453   85.4816   15.8399 C.ar    0  UNK0        0.1979
     33 O          61.2435   85.8618   17.2768 O.2     0  UNK0       -0.4355
     34 CB         61.8436   85.0212   11.6616 C.3     1  LEU1        0.0292
     35 CG         62.5196   83.9725   10.8291 C.3     1  LEU1        0.0021
     36 CD1        63.4718   84.3761    9.7426 C.3     1  LEU1        0.0001
     37 CD2        62.2436   82.5201   11.0831 C.3     1  LEU1        0.0001
@<TRIPOS>BOND
     1    28    29    1
     2    29    30   ar
     3    30    31   ar
     4    31    19    1
     5    19    20    1
     6    20    21    2
     7    20    22   am
     8    22    23    1
     9    23    24    1
    10    24    25    1
    11    25    26    1
    12    26    27    1
    13    19     1    1
    14     1     2   am
    15     2     3    2
    16     2     4    1
    17     4    10    1
    18    10    11    1
    19    11    12    1
    20    12    13   ar
    21    13    14   ar
    22    14    15   ar
    23    15    16   ar
    24    16    17   ar
    25    17    18    1
    26     4     5    1
    27     5     6   am
    28     6     7    2
    29     6     8    1
    30     8    34    1
    31    34    35    1
    32    35    36    1
    33    35    37    1
    34    31    32   ar
    35    32    33   ar
    36    33    29   ar
    37    27    22    1
    38     8     1    1
    39    18    10    1
    40    17    12   ar
    41     5     9    1
