@<TRIPOS>MOLECULE
*****
 38 42 0 0 0
SMALL
GASTEIGER

@<TRIPOS>ATOM
      1 C          63.5553   87.4805   13.4923 C.ar    1  UNL1        0.0781
      2 N          64.1006   86.2235   14.1024 N.ar    1  UNL1       -0.2480
      3 C          63.9088   84.9080   13.4075 C.ar    1  UNL1        0.0811
      4 C          64.4541   83.6509   14.0176 C.ar    1  UNL1        0.0214
      5 C          64.2622   82.3355   13.3227 C.ar    1  UNL1        0.0312
      6 C          63.5250   82.2773   12.0177 C.ar    1  UNL1        0.1402
      7 F          63.3332   80.9618   11.3227 F       1  UNL1       -0.2042
      8 C          62.9797   83.5344   11.4075 C.ar    1  UNL1        0.0312
      9 C          63.1716   84.8497   12.1025 C.ar    1  UNL1        0.0214
     10 C          62.6263   86.1069   11.4923 C.ar    1  UNL1        0.0218
     11 C          62.8181   87.4223   12.1873 C.ar    1  UNL1        0.0343
     12 C          61.8891   86.0487   10.1873 C.ar    1  UNL1        0.0814
     13 C          62.5590   85.4784    8.9723 C.ar    1  UNL1        0.0191
     14 C          61.8218   85.4201    7.6672 C.ar    1  UNL1        0.0031
     15 C          60.4147   85.9321    7.5772 C.ar    1  UNL1        0.0207
     16 C          59.7449   86.5024    8.7921 C.ar    1  UNL1        0.0988
     17 N          60.4821   86.5606   10.0972 N.ar    1  UNL1       -0.2438
     18 C          62.2728   88.6795   11.5771 C.ar    1  UNL1        0.0825
     19 C          62.9237   89.2657   10.3595 C.ar    1  UNL1        0.0192
     20 C          62.3784   90.5228    9.7494 C.ar    1  UNL1        0.0031
     21 C          61.1823   91.1937   10.3569 C.ar    1  UNL1        0.0207
     22 C          60.5314   90.6075   11.5745 C.ar    1  UNL1        0.0988
     23 N          61.0767   89.3503   12.1846 N.ar    1  UNL1       -0.2438
     24 C          63.6420   88.8773   15.6813 C.3     1  UNL1        0.0278
     25 C          63.7472   88.7960   14.1872 C.3     1  UNL1        0.1110
     26 N          64.0442   90.0301   13.3881 N.pl3   1  UNL1       -0.3141
     27 H          63.7041   90.1145   12.4680 H       1  UNL1        0.1485
     28 C          64.8593   91.1357   13.9907 C.ar    1  UNL1        0.1429
     29 N          65.1098   91.1626   15.4694 N.ar    1  UNL1       -0.2084
     30 C          65.9249   92.2682   16.0721 C.ar    1  UNL1        0.2012
     31 N          66.4897   93.3469   15.1960 N.ar    1  UNL1       -0.2087
     32 C          66.2393   93.3200   13.7173 C.ar    1  UNL1        0.1396
     33 N          66.8040   94.3987   12.8413 N.pl3   1  UNL1       -0.3420
     34 C          65.4241   92.2144   13.1146 C.ar    1  UNL1        0.1308
     35 H          67.3390   95.1243   13.2368 H       1  UNL1        0.1437
     36 H          66.6396   94.3811   11.8708 H       1  UNL1        0.1437
     37 C          65.1737   92.1875   11.6360 C.1     1  UNL1        0.1061
     38 N          64.9233   92.1607   10.1573 N.1     1  UNL1       -0.1906
@<TRIPOS>BOND
     1    25    24    1
     2    25    26    1
     3    26    28    1
     4    28    29   ar
     5    29    30   ar
     6    30    31   ar
     7    31    32   ar
     8    32    33    1
     9    32    34   ar
    10    34    37    1
    11    37    38    3
    12    25     1    1
    13     1     2   ar
    14     2     3   ar
    15     3     4   ar
    16     4     5   ar
    17     5     6   ar
    18     6     7    1
    19     6     8   ar
    20     8     9   ar
    21     9    10   ar
    22    10    12    1
    23    12    13   ar
    24    13    14   ar
    25    14    15   ar
    26    15    16   ar
    27    16    17   ar
    28    10    11   ar
    29    11    18    1
    30    18    19   ar
    31    19    20   ar
    32    20    21   ar
    33    21    22   ar
    34    22    23   ar
    35    34    28   ar
    36    11     1   ar
    37    23    18   ar
    38     9     3   ar
    39    17    12   ar
    40    26    27    1
    41    33    35    1
    42    33    36    1
@<TRIPOS>MOLECULE
*****
 38 42 0 0 0
SMALL
GASTEIGER

@<TRIPOS>ATOM
      1 C          63.2297   90.7077   11.6946 C.ar    1  UNL1        0.0781
      2 N          63.4259   91.6526   10.5463 N.ar    1  UNL1       -0.2480
      3 C          64.4769   92.7201   10.6244 C.ar    1  UNL1        0.0811
      4 C          64.6731   93.6649    9.4761 C.ar    1  UNL1        0.0214
      5 C          65.7240   94.7323    9.5543 C.ar    1  UNL1        0.0312
      6 C          66.5788   94.8548   10.7808 C.ar    1  UNL1        0.1402
      7 F          67.6298   95.9222   10.8590 F       1  UNL1       -0.2042
      8 C          66.3826   93.9099   11.9291 C.ar    1  UNL1        0.0312
      9 C          65.3316   92.8426   11.8509 C.ar    1  UNL1        0.0214
     10 C          65.1354   91.8976   12.9993 C.ar    1  UNL1        0.0218
     11 C          64.0845   90.8303   12.9211 C.ar    1  UNL1        0.0343
     12 C          65.9902   92.0201   14.2258 C.ar    1  UNL1        0.0814
     13 C          67.4207   91.5701   14.1911 C.ar    1  UNL1        0.0191
     14 C          68.2755   91.6927   15.4176 C.ar    1  UNL1        0.0031
     15 C          67.6997   92.2652   16.6789 C.ar    1  UNL1        0.0207
     16 C          66.2692   92.7151   16.7136 C.ar    1  UNL1        0.0988
     17 N          65.4145   92.5926   15.4871 N.ar    1  UNL1       -0.2438
     18 C          63.8882   89.8853   14.0695 C.ar    1  UNL1        0.0825
     19 C          64.3954   88.4767   13.9767 C.ar    1  UNL1        0.0192
     20 C          64.1992   87.5318   15.1250 C.ar    1  UNL1        0.0031
     21 C          63.4958   87.9955   16.3660 C.ar    1  UNL1        0.0207
     22 C          62.9886   89.4041   16.4588 C.ar    1  UNL1        0.0988
     23 N          63.1848   90.3490   15.3105 N.ar    1  UNL1       -0.2438
     24 C          60.9333   89.7519   12.4450 C.3     1  UNL1        0.0278
     25 C          62.1787   89.6403   11.6164 C.3     1  UNL1        0.1110
     26 N          62.3731   88.4613   10.7098 N.pl3   1  UNL1       -0.3141
     27 H          63.1366   87.8551   10.8473 H       1  UNL1        0.1485
     28 C          61.4043   88.2059    9.5934 C.ar    1  UNL1        0.1429
     29 N          60.5508   89.3232    9.0708 N.ar    1  UNL1       -0.2084
     30 C          59.5820   89.0678    7.9544 C.ar    1  UNL1        0.2012
     31 N          59.4667   87.6951    7.3608 N.ar    1  UNL1       -0.2087
     32 C          60.3202   86.5778    7.8834 C.ar    1  UNL1        0.1396
     33 N          60.2049   85.2051    7.2897 N.pl3   1  UNL1       -0.3420
     34 C          61.2891   86.8332    8.9998 C.ar    1  UNL1        0.1308
     35 H          59.5691   85.0375    6.5570 H       1  UNL1        0.1437
     36 H          60.7651   84.4718    7.6328 H       1  UNL1        0.1437
     37 C          62.1426   85.7159    9.5224 C.1     1  UNL1        0.1061
     38 N          62.9961   84.5987   10.0450 N.1     1  UNL1       -0.1906
@<TRIPOS>BOND
     1    25    24    1
     2    25    26    1
     3    26    28    1
     4    28    29   ar
     5    29    30   ar
     6    30    31   ar
     7    31    32   ar
     8    32    33    1
     9    32    34   ar
    10    34    37    1
    11    37    38    3
    12    25     1    1
    13     1     2   ar
    14     2     3   ar
    15     3     4   ar
    16     4     5   ar
    17     5     6   ar
    18     6     7    1
    19     6     8   ar
    20     8     9   ar
    21     9    10   ar
    22    10    12    1
    23    12    13   ar
    24    13    14   ar
    25    14    15   ar
    26    15    16   ar
    27    16    17   ar
    28    10    11   ar
    29    11    18    1
    30    18    19   ar
    31    19    20   ar
    32    20    21   ar
    33    21    22   ar
    34    22    23   ar
    35    34    28   ar
    36    11     1   ar
    37    23    18   ar
    38     9     3   ar
    39    17    12   ar
    40    26    27    1
    41    33    35    1
    42    33    36    1
@<TRIPOS>MOLECULE
*****
 38 42 0 0 0
SMALL
GASTEIGER

@<TRIPOS>ATOM
      1 C          63.6143   87.6471   13.5496 C.ar    1  UNL1        0.0781
      2 N          64.1220   86.3872   14.1857 N.ar    1  UNL1       -0.2480
      3 C          63.9027   85.0654   13.5113 C.ar    1  UNL1        0.0811
      4 C          64.4105   83.8054   14.1474 C.ar    1  UNL1        0.0214
      5 C          64.1912   82.4837   13.4729 C.ar    1  UNL1        0.0312
      6 C          63.4641   82.4219   12.1624 C.ar    1  UNL1        0.1402
      7 F          63.2449   81.1001   11.4879 F       1  UNL1       -0.2042
      8 C          62.9564   83.6819   11.5263 C.ar    1  UNL1        0.0312
      9 C          63.1757   85.0036   12.2007 C.ar    1  UNL1        0.0214
     10 C          62.6680   86.2636   11.5646 C.ar    1  UNL1        0.0218
     11 C          62.8873   87.5853   12.2391 C.ar    1  UNL1        0.0343
     12 C          61.9409   86.2019   10.2540 C.ar    1  UNL1        0.0814
     13 C          62.6349   85.6687    9.0358 C.ar    1  UNL1        0.0191
     14 C          61.9079   85.6069    7.7252 C.ar    1  UNL1        0.0031
     15 C          60.4868   86.0783    7.6329 C.ar    1  UNL1        0.0207
     16 C          59.7929   86.6115    8.8511 C.ar    1  UNL1        0.0988
     17 N          60.5200   86.6733   10.1617 N.ar    1  UNL1       -0.2438
     18 C          62.3795   88.8454   11.6029 C.ar    1  UNL1        0.0825
     19 C          60.9900   89.3272   11.8980 C.ar    1  UNL1        0.0192
     20 C          60.4822   90.5872   11.2619 C.ar    1  UNL1        0.0031
     21 C          61.3640   91.3653   10.3308 C.ar    1  UNL1        0.0207
     22 C          62.7535   90.8835   10.0358 C.ar    1  UNL1        0.0988
     23 N          63.2613   89.6235   10.6719 N.ar    1  UNL1       -0.2438
     24 C          63.8643   89.0508   15.7215 C.3     1  UNL1        0.0278
     25 C          63.8336   88.9689   14.2241 C.3     1  UNL1        0.1110
     26 N          64.0222   90.2087   13.4011 N.pl3   1  UNL1       -0.3141
     27 H          63.3391   90.4709   12.7424 H       1  UNL1        0.1485
     28 C          65.2515   91.0490   13.5818 C.ar    1  UNL1        0.1429
     29 N          66.3023   91.0806   12.5117 N.ar    1  UNL1       -0.2084
     30 C          67.5316   91.9209   12.6924 C.ar    1  UNL1        0.2012
     31 N          67.7102   92.7295   13.9431 N.ar    1  UNL1       -0.2087
     32 C          66.6595   92.6979   15.0131 C.ar    1  UNL1        0.1396
     33 N          66.8381   93.5066   16.2637 N.pl3   1  UNL1       -0.3420
     34 C          65.4301   91.8576   14.8324 C.ar    1  UNL1        0.1308
     35 H          67.6450   94.0581   16.3823 H       1  UNL1        0.1437
     36 H          66.1485   93.4858   16.9660 H       1  UNL1        0.1437
     37 C          64.3794   91.8260   15.9025 C.1     1  UNL1        0.1061
     38 N          63.3287   91.7944   16.9725 N.1     1  UNL1       -0.1906
@<TRIPOS>BOND
     1    25    24    1
     2    25    26    1
     3    26    28    1
     4    28    29   ar
     5    29    30   ar
     6    30    31   ar
     7    31    32   ar
     8    32    33    1
     9    32    34   ar
    10    34    37    1
    11    37    38    3
    12    25     1    1
    13     1     2   ar
    14     2     3   ar
    15     3     4   ar
    16     4     5   ar
    17     5     6   ar
    18     6     7    1
    19     6     8   ar
    20     8     9   ar
    21     9    10   ar
    22    10    12    1
    23    12    13   ar
    24    13    14   ar
    25    14    15   ar
    26    15    16   ar
    27    16    17   ar
    28    10    11   ar
    29    11    18    1
    30    18    19   ar
    31    19    20   ar
    32    20    21   ar
    33    21    22   ar
    34    22    23   ar
    35    34    28   ar
    36    11     1   ar
    37    23    18   ar
    38     9     3   ar
    39    17    12   ar
    40    26    27    1
    41    33    35    1
    42    33    36    1
@<TRIPOS>MOLECULE
*****
 38 42 0 0 0
SMALL
GASTEIGER

@<TRIPOS>ATOM
      1 C          63.1032   90.5143   11.8893 C.ar    1  UNL1        0.0781
      2 N          63.2994   91.4017   10.6959 N.ar    1  UNL1       -0.2480
      3 C          64.3695   92.4528   10.7107 C.ar    1  UNL1        0.0811
      4 C          64.5657   93.3401    9.5173 C.ar    1  UNL1        0.0214
      5 C          65.6357   94.3912    9.5321 C.ar    1  UNL1        0.0312
      6 C          66.5095   94.5550   10.7403 C.ar    1  UNL1        0.1402
      7 F          67.5795   95.6062   10.7550 F       1  UNL1       -0.2042
      8 C          66.3133   93.6677   11.9336 C.ar    1  UNL1        0.0312
      9 C          65.2433   92.6166   11.9188 C.ar    1  UNL1        0.0214
     10 C          65.0470   91.7292   13.1122 C.ar    1  UNL1        0.0218
     11 C          63.9770   90.6781   13.0974 C.ar    1  UNL1        0.0343
     12 C          65.9208   91.8930   14.3204 C.ar    1  UNL1        0.0814
     13 C          67.3579   91.4659   14.2701 C.ar    1  UNL1        0.0191
     14 C          68.2317   91.6297   15.4782 C.ar    1  UNL1        0.0031
     15 C          67.6684   92.2206   16.7367 C.ar    1  UNL1        0.0207
     16 C          66.2314   92.6476   16.7870 C.ar    1  UNL1        0.0988
     17 N          65.3576   92.4838   15.5788 N.ar    1  UNL1       -0.2438
     18 C          63.7808   89.7907   14.2908 C.ar    1  UNL1        0.0825
     19 C          64.4468   88.4478   14.3444 C.ar    1  UNL1        0.0192
     20 C          64.2506   87.5604   15.5377 C.ar    1  UNL1        0.0031
     21 C          63.3884   88.0160   16.6774 C.ar    1  UNL1        0.0207
     22 C          62.7224   89.3590   16.6238 C.ar    1  UNL1        0.0988
     23 N          62.9186   90.2463   15.4305 N.ar    1  UNL1       -0.2438
     24 C          60.6277   89.8289   11.4991 C.3     1  UNL1        0.0278
     25 C          62.0332   89.4632   11.8745 C.3     1  UNL1        0.1110
     26 N          62.3686   88.0464   12.2351 N.pl3   1  UNL1       -0.3141
     27 H          62.5012   87.7966   13.1781 H       1  UNL1        0.1485
     28 C          62.5022   87.0101   11.1589 C.ar    1  UNL1        0.1429
     29 N          62.3645   87.4033    9.7178 N.ar    1  UNL1       -0.2084
     30 C          62.4980   86.3670    8.6416 C.ar    1  UNL1        0.2012
     31 N          62.7693   84.9376    9.0064 N.ar    1  UNL1       -0.2087
     32 C          62.9070   84.5444   10.4473 C.ar    1  UNL1        0.1396
     33 N          63.1783   83.1149   10.8120 N.pl3   1  UNL1       -0.3420
     34 C          62.7735   85.5806   11.5236 C.ar    1  UNL1        0.1308
     35 H          63.2659   82.4347   10.1057 H       1  UNL1        0.1437
     36 H          63.2687   82.8568   11.7578 H       1  UNL1        0.1437
     37 C          62.9112   85.1874   12.9646 C.1     1  UNL1        0.1061
     38 N          63.0489   84.7942   14.4055 N.1     1  UNL1       -0.1906
@<TRIPOS>BOND
     1    25    24    1
     2    25    26    1
     3    26    28    1
     4    28    29   ar
     5    29    30   ar
     6    30    31   ar
     7    31    32   ar
     8    32    33    1
     9    32    34   ar
    10    34    37    1
    11    37    38    3
    12    25     1    1
    13     1     2   ar
    14     2     3   ar
    15     3     4   ar
    16     4     5   ar
    17     5     6   ar
    18     6     7    1
    19     6     8   ar
    20     8     9   ar
    21     9    10   ar
    22    10    12    1
    23    12    13   ar
    24    13    14   ar
    25    14    15   ar
    26    15    16   ar
    27    16    17   ar
    28    10    11   ar
    29    11    18    1
    30    18    19   ar
    31    19    20   ar
    32    20    21   ar
    33    21    22   ar
    34    22    23   ar
    35    34    28   ar
    36    11     1   ar
    37    23    18   ar
    38     9     3   ar
    39    17    12   ar
    40    26    27    1
    41    33    35    1
    42    33    36    1
@<TRIPOS>MOLECULE
*****
 38 42 0 0 0
SMALL
GASTEIGER

@<TRIPOS>ATOM
      1 C          60.8041   95.3519   -3.9625 C.ar    1  UNL1        0.0781
      2 N          61.5368   95.8439   -5.1754 N.ar    1  UNL1       -0.2480
      3 C          63.0138   96.0967   -5.1082 C.ar    1  UNL1        0.0811
      4 C          63.7465   96.5887   -6.3211 C.ar    1  UNL1        0.0214
      5 C          65.2235   96.8415   -6.2539 C.ar    1  UNL1        0.0312
      6 C          65.9678   96.6022   -4.9738 C.ar    1  UNL1        0.1402
      7 F          67.4449   96.8550   -4.9066 F       1  UNL1       -0.2042
      8 C          65.2352   96.1102   -3.7609 C.ar    1  UNL1        0.0312
      9 C          63.7582   95.8574   -3.8281 C.ar    1  UNL1        0.0214
     10 C          63.0255   95.3654   -2.6152 C.ar    1  UNL1        0.0218
     11 C          61.5485   95.1126   -2.6824 C.ar    1  UNL1        0.0343
     12 C          63.7699   95.1261   -1.3351 C.ar    1  UNL1        0.0814
     13 C          64.2034   93.7378   -0.9679 C.ar    1  UNL1        0.0191
     14 C          64.9478   93.4985    0.3122 C.ar    1  UNL1        0.0031
     15 C          65.2586   94.6475    1.2251 C.ar    1  UNL1        0.0207
     16 C          64.8251   96.0357    0.8578 C.ar    1  UNL1        0.0988
     17 N          64.0807   96.2750   -0.4223 N.ar    1  UNL1       -0.2438
     18 C          60.8158   94.6206   -1.4695 C.ar    1  UNL1        0.0825
     19 C          60.7784   93.1534   -1.1598 C.ar    1  UNL1        0.0192
     20 C          60.0457   92.6613    0.0530 C.ar    1  UNL1        0.0031
     21 C          59.3505   93.6364    0.9562 C.ar    1  UNL1        0.0207
     22 C          59.3879   95.1036    0.6465 C.ar    1  UNL1        0.0988
     23 N          60.1205   95.5957   -0.5664 N.ar    1  UNL1       -0.2438
     24 C          58.3626   96.1830   -3.6488 C.3     1  UNL1        0.0278
     25 C          59.3271   95.0991   -4.0297 C.3     1  UNL1        0.1110
     26 N          58.8145   93.7626   -4.4779 N.pl3   1  UNL1       -0.3141
     27 H          59.1386   93.3681   -5.3196 H       1  UNL1        0.1485
     28 C          57.8082   93.0271   -3.6434 C.ar    1  UNL1        0.1429
     29 N          57.5978   93.4126   -2.2091 N.ar    1  UNL1       -0.2084
     30 C          56.5915   92.6771   -1.3747 C.ar    1  UNL1        0.2012
     31 N          55.7955   91.5561   -1.9745 N.ar    1  UNL1       -0.2087
     32 C          56.0058   91.1706   -3.4088 C.ar    1  UNL1        0.1396
     33 N          55.2099   90.0496   -4.0086 N.pl3   1  UNL1       -0.3420
     34 C          57.0122   91.9061   -4.2433 C.ar    1  UNL1        0.1308
     35 H          54.5494   89.5668   -3.4609 H       1  UNL1        0.1437
     36 H          55.3480   89.7965   -4.9499 H       1  UNL1        0.1437
     37 C          57.2226   91.5206   -5.6775 C.1     1  UNL1        0.1061
     38 N          57.4329   91.1351   -7.1117 N.1     1  UNL1       -0.1906
@<TRIPOS>BOND
     1    25    24    1
     2    25    26    1
     3    26    28    1
     4    28    29   ar
     5    29    30   ar
     6    30    31   ar
     7    31    32   ar
     8    32    33    1
     9    32    34   ar
    10    34    37    1
    11    37    38    3
    12    25     1    1
    13     1     2   ar
    14     2     3   ar
    15     3     4   ar
    16     4     5   ar
    17     5     6   ar
    18     6     7    1
    19     6     8   ar
    20     8     9   ar
    21     9    10   ar
    22    10    12    1
    23    12    13   ar
    24    13    14   ar
    25    14    15   ar
    26    15    16   ar
    27    16    17   ar
    28    10    11   ar
    29    11    18    1
    30    18    19   ar
    31    19    20   ar
    32    20    21   ar
    33    21    22   ar
    34    22    23   ar
    35    34    28   ar
    36    11     1   ar
    37    23    18   ar
    38     9     3   ar
    39    17    12   ar
    40    26    27    1
    41    33    35    1
    42    33    36    1
@<TRIPOS>MOLECULE
*****
 38 42 0 0 0
SMALL
GASTEIGER

@<TRIPOS>ATOM
      1 C          59.8219   94.5425   -0.2227 C.ar    1  UNL1        0.0781
      2 N          58.4810   94.3357   -0.8623 N.ar    1  UNL1       -0.2480
      3 C          58.3782   94.1577   -2.3482 C.ar    1  UNL1        0.0811
      4 C          57.0373   93.9509   -2.9878 C.ar    1  UNL1        0.0214
      5 C          56.9347   93.7729   -4.4737 C.ar    1  UNL1        0.0312
      6 C          58.1728   93.8018   -5.3199 C.ar    1  UNL1        0.1402
      7 F          58.0701   93.6239   -6.8058 F       1  UNL1       -0.2042
      8 C          59.5137   94.0087   -4.6802 C.ar    1  UNL1        0.0312
      9 C          59.6164   94.1866   -3.1944 C.ar    1  UNL1        0.0214
     10 C          60.9574   94.3935   -2.5547 C.ar    1  UNL1        0.0218
     11 C          61.0601   94.5715   -1.0689 C.ar    1  UNL1        0.0343
     12 C          62.1956   94.4224   -3.4009 C.ar    1  UNL1        0.0814
     13 C          62.9888   93.1670   -3.6126 C.ar    1  UNL1        0.0191
     14 C          64.2270   93.1959   -4.4588 C.ar    1  UNL1        0.0031
     15 C          64.6719   94.4802   -5.0933 C.ar    1  UNL1        0.0207
     16 C          63.8787   95.7356   -4.8816 C.ar    1  UNL1        0.0988
     17 N          62.6405   95.7067   -4.0354 N.ar    1  UNL1       -0.2438
     18 C          62.4010   94.7783   -0.4291 C.ar    1  UNL1        0.0825
     19 C          63.2020   93.5971    0.0324 C.ar    1  UNL1        0.0192
     20 C          64.5429   93.8039    0.6721 C.ar    1  UNL1        0.0031
     21 C          65.0827   95.1919    0.8502 C.ar    1  UNL1        0.0207
     22 C          64.2817   96.3732    0.3887 C.ar    1  UNL1        0.0988
     23 N          62.9409   96.1664   -0.2510 N.ar    1  UNL1       -0.2438
     24 C          60.5820   95.9447    1.8283 C.3     1  UNL1        0.0278
     25 C          59.9246   94.7205    1.2632 C.3     1  UNL1        0.1110
     26 N          59.3700   93.6743    2.1840 N.pl3   1  UNL1       -0.3141
     27 H          58.3962   93.5835    2.2962 H       1  UNL1        0.1485
     28 C          60.2992   92.7665    2.9340 C.ar    1  UNL1        0.1429
     29 N          61.7413   92.6712    2.5320 N.ar    1  UNL1       -0.2084
     30 C          62.6705   91.7634    3.2819 C.ar    1  UNL1        0.2012
     31 N          62.1577   90.9509    4.4338 N.ar    1  UNL1       -0.2087
     32 C          60.7158   91.0462    4.8358 C.ar    1  UNL1        0.1396
     33 N          60.2030   90.2337    5.9878 N.pl3   1  UNL1       -0.3420
     34 C          59.7865   91.9541    4.0859 C.ar    1  UNL1        0.1308
     35 H          60.8129   89.6379    6.4800 H       1  UNL1        0.1437
     36 H          59.2566   90.2963    6.2516 H       1  UNL1        0.1437
     37 C          58.3445   92.0494    4.4879 C.1     1  UNL1        0.1061
     38 N          56.9026   92.1447    4.8899 N.1     1  UNL1       -0.1906
@<TRIPOS>BOND
     1    25    24    1
     2    25    26    1
     3    26    28    1
     4    28    29   ar
     5    29    30   ar
     6    30    31   ar
     7    31    32   ar
     8    32    33    1
     9    32    34   ar
    10    34    37    1
    11    37    38    3
    12    25     1    1
    13     1     2   ar
    14     2     3   ar
    15     3     4   ar
    16     4     5   ar
    17     5     6   ar
    18     6     7    1
    19     6     8   ar
    20     8     9   ar
    21     9    10   ar
    22    10    12    1
    23    12    13   ar
    24    13    14   ar
    25    14    15   ar
    26    15    16   ar
    27    16    17   ar
    28    10    11   ar
    29    11    18    1
    30    18    19   ar
    31    19    20   ar
    32    20    21   ar
    33    21    22   ar
    34    22    23   ar
    35    34    28   ar
    36    11     1   ar
    37    23    18   ar
    38     9     3   ar
    39    17    12   ar
    40    26    27    1
    41    33    35    1
    42    33    36    1
@<TRIPOS>MOLECULE
*****
 38 42 0 0 0
SMALL
GASTEIGER

@<TRIPOS>ATOM
      1 C          62.9780   88.0975   12.6342 C.ar    1  UNL1        0.0781
      2 N          62.2636   88.7715   11.5006 N.ar    1  UNL1       -0.2480
      3 C          61.6990   87.9531   10.3774 C.ar    1  UNL1        0.0811
      4 C          60.9846   88.6272    9.2437 C.ar    1  UNL1        0.0214
      5 C          60.4200   87.8088    8.1206 C.ar    1  UNL1        0.0312
      6 C          60.5698   86.3163    8.1312 C.ar    1  UNL1        0.1402
      7 F          60.0052   85.4979    7.0080 F       1  UNL1       -0.2042
      8 C          61.2842   85.6423    9.2648 C.ar    1  UNL1        0.0312
      9 C          61.8488   86.4607   10.3879 C.ar    1  UNL1        0.0214
     10 C          62.5632   85.7866   11.5217 C.ar    1  UNL1        0.0218
     11 C          63.1278   86.6050   12.6448 C.ar    1  UNL1        0.0343
     12 C          62.7131   84.2941   11.5322 C.ar    1  UNL1        0.0814
     13 C          63.5140   83.6132   10.4621 C.ar    1  UNL1        0.0191
     14 C          63.6638   82.1207   10.4727 C.ar    1  UNL1        0.0031
     15 C          63.0127   81.3092   11.5533 C.ar    1  UNL1        0.0207
     16 C          62.2119   81.9902   12.6233 C.ar    1  UNL1        0.0988
     17 N          62.0621   83.4826   12.6127 N.ar    1  UNL1       -0.2438
     18 C          63.8423   85.9309   13.7785 C.ar    1  UNL1        0.0825
     19 C          65.2631   85.4812   13.6081 C.ar    1  UNL1        0.0192
     20 C          65.9775   84.8072   14.7417 C.ar    1  UNL1        0.0031
     21 C          65.2712   84.5829   16.0458 C.ar    1  UNL1        0.0207
     22 C          63.8504   85.0327   16.2163 C.ar    1  UNL1        0.0988
     23 N          63.1359   85.7067   15.0826 N.ar    1  UNL1       -0.2438
     24 C          64.3967   88.2644   14.8044 C.3     1  UNL1        0.0278
     25 C          63.5426   88.9159   13.7574 C.3     1  UNL1        0.1110
     26 N          63.2531   90.3857   13.8337 N.pl3   1  UNL1       -0.3141
     27 H          62.3235   90.7071   13.7909 H       1  UNL1        0.1485
     28 C          64.3798   91.3656   13.9750 C.ar    1  UNL1        0.1429
     29 N          64.9731   91.6367   15.3258 N.ar    1  UNL1       -0.2084
     30 C          66.0998   92.6167   15.4672 C.ar    1  UNL1        0.2012
     31 N          66.6334   93.3256   14.2578 N.ar    1  UNL1       -0.2087
     32 C          66.0402   93.0546   12.9070 C.ar    1  UNL1        0.1396
     33 N          66.5738   93.7635   11.6976 N.pl3   1  UNL1       -0.3420
     34 C          64.9134   92.0746   12.7656 C.ar    1  UNL1        0.1308
     35 H          67.3134   94.4067   11.7903 H       1  UNL1        0.1437
     36 H          66.1845   93.5856   10.8110 H       1  UNL1        0.1437
     37 C          64.3202   91.8035   11.4148 C.1     1  UNL1        0.1061
     38 N          63.7271   91.5324   10.0640 N.1     1  UNL1       -0.1906
@<TRIPOS>BOND
     1    25    24    1
     2    25    26    1
     3    26    28    1
     4    28    29   ar
     5    29    30   ar
     6    30    31   ar
     7    31    32   ar
     8    32    33    1
     9    32    34   ar
    10    34    37    1
    11    37    38    3
    12    25     1    1
    13     1     2   ar
    14     2     3   ar
    15     3     4   ar
    16     4     5   ar
    17     5     6   ar
    18     6     7    1
    19     6     8   ar
    20     8     9   ar
    21     9    10   ar
    22    10    12    1
    23    12    13   ar
    24    13    14   ar
    25    14    15   ar
    26    15    16   ar
    27    16    17   ar
    28    10    11   ar
    29    11    18    1
    30    18    19   ar
    31    19    20   ar
    32    20    21   ar
    33    21    22   ar
    34    22    23   ar
    35    34    28   ar
    36    11     1   ar
    37    23    18   ar
    38     9     3   ar
    39    17    12   ar
    40    26    27    1
    41    33    35    1
    42    33    36    1
@<TRIPOS>MOLECULE
*****
 38 42 0 0 0
SMALL
GASTEIGER

@<TRIPOS>ATOM
      1 C          60.2877   94.5221   -3.4943 C.ar    1  UNL1        0.0781
      2 N          60.8066   94.8385   -4.8656 N.ar    1  UNL1       -0.2480
      3 C          62.2605   95.1502   -5.0639 C.ar    1  UNL1        0.0811
      4 C          62.7794   95.4666   -6.4352 C.ar    1  UNL1        0.0214
      5 C          64.2332   95.7783   -6.6335 C.ar    1  UNL1        0.0312
      6 C          65.1680   95.7736   -5.4604 C.ar    1  UNL1        0.1402
      7 F          66.6218   96.0853   -5.6587 F       1  UNL1       -0.2042
      8 C          64.6491   95.4572   -4.0891 C.ar    1  UNL1        0.0312
      9 C          63.1953   95.1455   -3.8908 C.ar    1  UNL1        0.0214
     10 C          62.6763   94.8291   -2.5195 C.ar    1  UNL1        0.0218
     11 C          61.2225   94.5174   -2.3212 C.ar    1  UNL1        0.0343
     12 C          63.6111   94.8244   -1.3464 C.ar    1  UNL1        0.0814
     13 C          64.1316   93.5249   -0.8074 C.ar    1  UNL1        0.0191
     14 C          65.0665   93.5201    0.3657 C.ar    1  UNL1        0.0031
     15 C          65.4808   94.8149    0.9997 C.ar    1  UNL1        0.0207
     16 C          64.9603   96.1143    0.4607 C.ar    1  UNL1        0.0988
     17 N          64.0255   96.1190   -0.7124 N.ar    1  UNL1       -0.2438
     18 C          60.7035   94.2009   -0.9498 C.ar    1  UNL1        0.0825
     19 C          60.5574   92.7730   -0.5143 C.ar    1  UNL1        0.0192
     20 C          60.0384   92.4566    0.8570 C.ar    1  UNL1        0.0031
     21 C          59.6656   93.5680    1.7927 C.ar    1  UNL1        0.0207
     22 C          59.8117   94.9959    1.3572 C.ar    1  UNL1        0.0988
     23 N          60.3307   95.3124   -0.0141 N.ar    1  UNL1       -0.2438
     24 C          57.9219   95.2377   -2.6935 C.3     1  UNL1        0.0278
     25 C          58.8339   94.2104   -3.2959 C.3     1  UNL1        0.1110
     26 N          58.2920   92.8713   -3.7000 N.pl3   1  UNL1       -0.3141
     27 H          58.4331   92.0880   -3.1206 H       1  UNL1        0.1485
     28 C          57.5351   92.7258   -4.9868 C.ar    1  UNL1        0.1429
     29 N          57.9328   93.5340   -6.1864 N.ar    1  UNL1       -0.2084
     30 C          57.1759   93.3885   -7.4732 C.ar    1  UNL1        0.2012
     31 N          56.0213   92.4349   -7.5605 N.ar    1  UNL1       -0.2087
     32 C          55.6236   91.6268   -6.3610 C.ar    1  UNL1        0.1396
     33 N          54.4691   90.6732   -6.4484 N.pl3   1  UNL1       -0.3420
     34 C          56.3805   91.7722   -5.0741 C.ar    1  UNL1        0.1308
     35 H          53.9723   90.5777   -7.2930 H       1  UNL1        0.1437
     36 H          54.2081   90.1428   -5.6611 H       1  UNL1        0.1437
     37 C          55.9829   90.9641   -3.8747 C.1     1  UNL1        0.1061
     38 N          55.5852   90.1560   -2.6752 N.1     1  UNL1       -0.1906
@<TRIPOS>BOND
     1    25    24    1
     2    25    26    1
     3    26    28    1
     4    28    29   ar
     5    29    30   ar
     6    30    31   ar
     7    31    32   ar
     8    32    33    1
     9    32    34   ar
    10    34    37    1
    11    37    38    3
    12    25     1    1
    13     1     2   ar
    14     2     3   ar
    15     3     4   ar
    16     4     5   ar
    17     5     6   ar
    18     6     7    1
    19     6     8   ar
    20     8     9   ar
    21     9    10   ar
    22    10    12    1
    23    12    13   ar
    24    13    14   ar
    25    14    15   ar
    26    15    16   ar
    27    16    17   ar
    28    10    11   ar
    29    11    18    1
    30    18    19   ar
    31    19    20   ar
    32    20    21   ar
    33    21    22   ar
    34    22    23   ar
    35    34    28   ar
    36    11     1   ar
    37    23    18   ar
    38     9     3   ar
    39    17    12   ar
    40    26    27    1
    41    33    35    1
    42    33    36    1
@<TRIPOS>MOLECULE
*****
 38 42 0 0 0
SMALL
GASTEIGER

@<TRIPOS>ATOM
      1 C          62.9900   88.2479   12.4869 C.ar    1  UNL1        0.0781
      2 N          62.2831   88.8544   11.3111 N.ar    1  UNL1       -0.2480
      3 C          61.7128   87.9708   10.2414 C.ar    1  UNL1        0.0811
      4 C          61.0059   88.5773    9.0656 C.ar    1  UNL1        0.0214
      5 C          60.4357   87.6938    7.9960 C.ar    1  UNL1        0.0312
      6 C          60.5724   86.2038    8.1021 C.ar    1  UNL1        0.1402
      7 F          60.0021   85.3202    7.0324 F       1  UNL1       -0.2042
      8 C          61.2793   85.5973    9.2779 C.ar    1  UNL1        0.0312
      9 C          61.8495   86.4808   10.3475 C.ar    1  UNL1        0.0214
     10 C          62.5564   85.8744   11.5234 C.ar    1  UNL1        0.0218
     11 C          63.1267   86.7579   12.5930 C.ar    1  UNL1        0.0343
     12 C          62.6931   84.3844   11.6295 C.ar    1  UNL1        0.0814
     13 C          63.4416   83.6230   10.5759 C.ar    1  UNL1        0.0191
     14 C          63.5783   82.1330   10.6820 C.ar    1  UNL1        0.0031
     15 C          62.9664   81.4044   11.8417 C.ar    1  UNL1        0.0207
     16 C          62.2180   82.1658   12.8953 C.ar    1  UNL1        0.0988
     17 N          62.0813   83.6558   12.7891 N.ar    1  UNL1       -0.2438
     18 C          63.8336   86.1515   13.7689 C.ar    1  UNL1        0.0825
     19 C          65.2161   85.5927   13.6062 C.ar    1  UNL1        0.0192
     20 C          65.9230   84.9862   14.7820 C.ar    1  UNL1        0.0031
     21 C          65.2475   84.9386   16.1204 C.ar    1  UNL1        0.0207
     22 C          63.8650   85.4974   16.2830 C.ar    1  UNL1        0.0988
     23 N          63.1580   86.1038   15.1072 N.ar    1  UNL1       -0.2438
     24 C          64.3338   88.5302   14.6925 C.3     1  UNL1        0.0278
     25 C          63.5603   89.1314   13.5566 C.3     1  UNL1        0.1110
     26 N          63.3569   90.6161   13.4905 N.pl3   1  UNL1       -0.3141
     27 H          62.4962   91.0077   13.7641 H       1  UNL1        0.1485
     28 C          64.4651   91.5040   13.0074 C.ar    1  UNL1        0.1429
     29 N          64.7286   91.6423   11.5371 N.ar    1  UNL1       -0.2084
     30 C          65.8368   92.5302   11.0540 C.ar    1  UNL1        0.2012
     31 N          66.6816   93.2799   12.0411 N.ar    1  UNL1       -0.2087
     32 C          66.4182   93.1417   13.5113 C.ar    1  UNL1        0.1396
     33 N          67.2629   93.8914   14.4984 N.pl3   1  UNL1       -0.3420
     34 C          65.3099   92.2537   13.9945 C.ar    1  UNL1        0.1308
     35 H          67.9903   94.4741   14.1813 H       1  UNL1        0.1437
     36 H          67.0900   93.8006   15.4633 H       1  UNL1        0.1437
     37 C          65.0465   92.1155   15.4646 C.1     1  UNL1        0.1061
     38 N          64.7831   91.9772   16.9348 N.1     1  UNL1       -0.1906
@<TRIPOS>BOND
     1    25    24    1
     2    25    26    1
     3    26    28    1
     4    28    29   ar
     5    29    30   ar
     6    30    31   ar
     7    31    32   ar
     8    32    33    1
     9    32    34   ar
    10    34    37    1
    11    37    38    3
    12    25     1    1
    13     1     2   ar
    14     2     3   ar
    15     3     4   ar
    16     4     5   ar
    17     5     6   ar
    18     6     7    1
    19     6     8   ar
    20     8     9   ar
    21     9    10   ar
    22    10    12    1
    23    12    13   ar
    24    13    14   ar
    25    14    15   ar
    26    15    16   ar
    27    16    17   ar
    28    10    11   ar
    29    11    18    1
    30    18    19   ar
    31    19    20   ar
    32    20    21   ar
    33    21    22   ar
    34    22    23   ar
    35    34    28   ar
    36    11     1   ar
    37    23    18   ar
    38     9     3   ar
    39    17    12   ar
    40    26    27    1
    41    33    35    1
    42    33    36    1
