@<TRIPOS>MOLECULE
*****
 44 47 0 0 0
SMALL
GASTEIGER

@<TRIPOS>ATOM
      1 C          61.9856   87.1255   10.7505 C.3     1  UNL1        0.1678
      2 C          62.5061   86.1972   11.8076 C.2     1  UNL1        0.2492
      3 O          62.2096   85.4971   11.5683 O.2     1  UNL1       -0.2727
      4 N          63.3604   86.5202   12.9974 N.am    1  UNL1       -0.2517
      5 C          63.9053   87.8510   13.4242 C.ar    1  UNL1        0.0679
      6 C          64.7170   87.7337   14.6800 C.ar    1  UNL1        0.0169
      7 C          65.3538   88.9530   15.2780 C.ar    1  UNL1        0.0116
      8 C          65.1789   90.2896   14.6202 C.ar    1  UNL1        0.0698
      9 C          64.3671   90.4070   13.3643 C.ar    1  UNL1        0.0264
     10 C          63.7303   89.1876   12.7663 C.ar    1  UNL1        0.0682
     11 N          62.9673   89.5235   11.5193 N.am    1  UNL1       -0.2555
     12 C          62.9829   90.9682   11.1161 C.2     1  UNL1        0.2535
     13 O          62.2508   91.4110    9.8840 O.2     1  UNL1       -0.2726
     14 C          62.1908   88.6058   10.6221 C.3     1  UNL1        0.1067
     15 C          61.5326   89.2541    9.4405 C.3     1  UNL1        0.0242
     16 C          61.8025   85.9293    8.4514 C.2     1  UNL1        0.2371
     17 O          63.2922   86.0056    8.2931 O.2     1  UNL1       -0.2737
     18 N          61.1492   86.4892    9.6801 N.am    1  UNL1       -0.2959
     19 H          60.1715   86.4391    9.7840 H       1  UNL1        0.1499
     20 C          60.9661   85.2930    7.3811 C.3     1  UNL1        0.1316
     21 C          61.6135   84.4372    6.3329 C.3     1  UNL1        0.0270
     22 C          58.9274   86.8995    7.4934 C.3     1  UNL1        0.0862
     23 N          59.4825   85.5125    7.3589 N.3     1  UNL1       -0.2902
     24 H          59.1437   85.1447    6.4698 H       1  UNL1        0.1237
     25 C          65.8158   91.5090   15.2183 C.1     1  UNL1        0.1005
     26 N          66.4527   92.7283   15.8163 N.1     1  UNL1       -0.1908
     27 C          63.7171   85.3586   13.8770 C.3     1  UNL1        0.1278
     28 C          63.0042   84.0487   13.7154 C.ar    1  UNL1        0.0320
     29 C          61.9759   83.6253   14.7220 C.ar    1  UNL1        0.1363
     30 C          61.2630   82.3155   14.5604 C.ar    1  UNL1        0.0366
     31 C          61.5784   81.4291   13.3922 C.ar    1  UNL1        0.0031
     32 C          62.6066   81.8525   12.3856 C.ar    1  UNL1       -0.0001
     33 C          62.9220   80.9661   11.2173 C.ar    1  UNL1       -0.0000
     34 C          63.9503   81.3895   10.2106 C.ar    1  UNL1       -0.0000
     35 C          64.6632   82.6993   10.3722 C.ar    1  UNL1       -0.0000
     36 C          64.3479   83.5858   11.5405 C.ar    1  UNL1       -0.0002
     37 C          63.3195   83.1623   12.5471 C.ar    1  UNL1        0.0006
     38 O          61.6605   84.5117   15.8903 O.3     1  UNL1       -0.4717
     39 C          62.7695   85.1952   16.6341 C.3     1  UNL1        0.2525
     40 C          63.7305   91.9703   11.9450 C.3     1  UNL1        0.2357
     41 S          64.9970   92.5806   11.4221 S.O2    1  UNL1        0.0007
     42 C          66.2635   93.1909   10.8993 C.3     1  UNL1        0.1766
     43 O          64.8321   91.8227   10.1382 O.2     1  UNL1       -0.1725
     44 O          65.1619   93.3384   12.7060 O.2     1  UNL1       -0.1725
@<TRIPOS>BOND
     1    22    23    1
     2    23    20    1
     3    20    21    1
     4    20    16    1
     5    16    17    2
     6    16    18   am
     7     1    18    1
     8     1     2    1
     9     2     3    2
    10     2     4   am
    11     4    27    1
    12    27    28    1
    13    28    29   ar
    14    29    38    1
    15    38    39    1
    16    29    30   ar
    17    30    31   ar
    18    31    32   ar
    19    32    33   ar
    20    33    34   ar
    21    34    35   ar
    22    35    36   ar
    23    36    37   ar
    24     4     5    1
    25     5     6   ar
    26     6     7   ar
    27     7     8   ar
    28     8    25    1
    29    25    26    3
    30     8     9   ar
    31     9    10   ar
    32    10    11    1
    33    11    12   am
    34    12    13    2
    35    12    40    1
    36    40    41    1
    37    41    42    1
    38    41    43    2
    39    41    44    2
    40    11    14    1
    41    14    15    1
    42    14     1    1
    43    37    28   ar
    44    10     5   ar
    45    37    32   ar
    46    23    24    1
    47    18    19    1
@<TRIPOS>MOLECULE
*****
 44 47 0 0 0
SMALL
GASTEIGER

@<TRIPOS>ATOM
      1 C          60.6552   92.6751    0.0084 C.3     1  UNL1        0.1678
      2 C          59.4121   92.4540   -0.8014 C.2     1  UNL1        0.2492
      3 O          58.9638   92.0296   -0.2971 O.2     1  UNL1       -0.2727
      4 N          59.1092   92.9180   -2.1953 N.am    1  UNL1       -0.2517
      5 C          59.9745   93.7177   -3.1237 C.ar    1  UNL1        0.0679
      6 C          59.2876   93.9686   -4.4333 C.ar    1  UNL1        0.0169
      7 C          59.9827   94.7527   -5.5066 C.ar    1  UNL1        0.0116
      8 C          61.3647   95.2859   -5.2702 C.ar    1  UNL1        0.0698
      9 C          62.0516   95.0350   -3.9606 C.ar    1  UNL1        0.0264
     10 C          61.3565   94.2509   -2.8873 C.ar    1  UNL1        0.0682
     11 N          62.2144   94.1160   -1.6643 N.am    1  UNL1       -0.2555
     12 C          63.5628   94.7688   -1.7400 C.2     1  UNL1        0.2535
     13 O          64.4994   94.6934   -0.5707 O.2     1  UNL1       -0.2726
     14 C          61.9024   93.4148   -0.3755 C.3     1  UNL1        0.1067
     15 C          62.9799   93.4591    0.6670 C.3     1  UNL1        0.0242
     16 C          60.2246   92.9056    2.5602 C.2     1  UNL1        0.2371
     17 O          59.8035   94.3314    2.3604 O.2     1  UNL1       -0.2737
     18 N          60.6504   92.0775    1.3843 N.am    1  UNL1       -0.2959
     19 H          60.9268   91.1418    1.5154 H       1  UNL1        0.1499
     20 C          60.2199   92.3080    3.9360 C.3     1  UNL1        0.1316
     21 C          61.3555   91.4330    4.3775 C.3     1  UNL1        0.0270
     22 C          58.1153   91.4916    5.2221 C.3     1  UNL1        0.0862
     23 N          59.0796   92.5853    4.8702 N.3     1  UNL1       -0.2902
     24 H          59.4890   92.9100    5.7462 H       1  UNL1        0.1237
     25 C          62.0598   96.0701   -6.3436 C.1     1  UNL1        0.1005
     26 N          62.7548   96.8541   -7.4169 N.1     1  UNL1       -0.1908
     27 C          57.7629   92.5312   -2.7319 C.3     1  UNL1        0.1278
     28 C          56.8358   93.5846   -3.2619 C.ar    1  UNL1        0.0320
     29 C          56.3749   94.6969   -2.3673 C.ar    1  UNL1        0.1363
     30 C          55.4478   95.7503   -2.8972 C.ar    1  UNL1        0.0366
     31 C          54.9817   95.6914   -4.3218 C.ar    1  UNL1        0.0031
     32 C          55.4426   94.5791   -5.2163 C.ar    1  UNL1       -0.0001
     33 C          54.9765   94.5202   -6.6408 C.ar    1  UNL1       -0.0000
     34 C          55.4374   93.4078   -7.5355 C.ar    1  UNL1       -0.0000
     35 C          56.3645   92.3545   -7.0055 C.ar    1  UNL1       -0.0000
     36 C          56.8307   92.4133   -5.5810 C.ar    1  UNL1       -0.0002
     37 C          56.3697   93.5257   -4.6864 C.ar    1  UNL1        0.0006
     38 O          56.8410   94.7558   -0.9428 O.3     1  UNL1       -0.4717
     39 C          58.0617   95.5509   -0.5853 C.3     1  UNL1        0.2525
     40 C          63.9747   95.4971   -2.9851 C.3     1  UNL1        0.2357
     41 S          65.3106   96.1762   -3.0494 S.O2    1  UNL1        0.0007
     42 C          66.6464   96.8554   -3.1137 C.3     1  UNL1        0.1766
     43 O          65.5929   95.4971   -4.3567 O.2     1  UNL1       -0.1725
     44 O          65.0282   96.8554   -1.7421 O.2     1  UNL1       -0.1725
@<TRIPOS>BOND
     1    22    23    1
     2    23    20    1
     3    20    21    1
     4    20    16    1
     5    16    17    2
     6    16    18   am
     7     1    18    1
     8     1     2    1
     9     2     3    2
    10     2     4   am
    11     4    27    1
    12    27    28    1
    13    28    29   ar
    14    29    38    1
    15    38    39    1
    16    29    30   ar
    17    30    31   ar
    18    31    32   ar
    19    32    33   ar
    20    33    34   ar
    21    34    35   ar
    22    35    36   ar
    23    36    37   ar
    24     4     5    1
    25     5     6   ar
    26     6     7   ar
    27     7     8   ar
    28     8    25    1
    29    25    26    3
    30     8     9   ar
    31     9    10   ar
    32    10    11    1
    33    11    12   am
    34    12    13    2
    35    12    40    1
    36    40    41    1
    37    41    42    1
    38    41    43    2
    39    41    44    2
    40    11    14    1
    41    14    15    1
    42    14     1    1
    43    37    28   ar
    44    10     5   ar
    45    37    32   ar
    46    23    24    1
    47    18    19    1
@<TRIPOS>MOLECULE
*****
 44 47 0 0 0
SMALL
GASTEIGER

@<TRIPOS>ATOM
      1 C          63.4341   86.6123   12.8596 C.3     1  UNL1        0.1678
      2 C          63.2205   88.0492   13.2337 C.2     1  UNL1        0.2492
      3 O          63.5759   88.0854   13.9462 O.2     1  UNL1       -0.2727
      4 N          62.5185   89.1233   12.4569 N.am    1  UNL1       -0.2517
      5 C          61.8568   89.0261   11.1143 C.ar    1  UNL1        0.0679
      6 C          61.2705   90.3418   10.6957 C.ar    1  UNL1        0.0169
      7 C          60.5610   90.4619    9.3796 C.ar    1  UNL1        0.0116
      8 C          60.4378   89.2664    8.4821 C.ar    1  UNL1        0.0698
      9 C          61.0241   87.9507    8.9006 C.ar    1  UNL1        0.0264
     10 C          61.7336   87.8306   10.2168 C.ar    1  UNL1        0.0682
     11 N          62.2418   86.4371   10.4403 N.am    1  UNL1       -0.2555
     12 C          61.9552   85.4560    9.3423 C.2     1  UNL1        0.2535
     13 O          62.4198   84.0351    9.4660 O.2     1  UNL1       -0.2726
     14 C          62.9985   85.8948   11.6164 C.3     1  UNL1        0.1067
     15 C          63.3687   84.4433   11.5391 C.3     1  UNL1        0.0242
     16 C          63.4342   84.8744   14.7908 C.2     1  UNL1        0.2371
     17 O          61.9380   84.7944   14.7189 O.2     1  UNL1       -0.2737
     18 N          64.1822   85.7834   13.8611 N.am    1  UNL1       -0.2959
     19 H          65.1642   85.8359   13.9083 H       1  UNL1        0.1499
     20 C          64.1824   84.0455   15.7923 C.3     1  UNL1        0.1316
     21 C          64.5311   84.6222   17.1325 C.3     1  UNL1        0.0270
     22 C          63.9955   81.9626   14.2506 C.3     1  UNL1        0.0862
     23 N          64.5818   82.6398   15.4538 N.3     1  UNL1       -0.2902
     24 H          65.5936   82.6441   15.3255 H       1  UNL1        0.1237
     25 C          59.7283   89.3866    7.1659 C.1     1  UNL1        0.1005
     26 N          59.0189   89.5067    5.8498 N.1     1  UNL1       -0.1908
     27 C          62.4721   90.4734   13.1091 C.3     1  UNL1        0.1278
     28 C          63.7220   91.0728   13.6822 C.ar    1  UNL1        0.0320
     29 C          63.9549   91.0474   15.1637 C.ar    1  UNL1        0.1363
     30 C          65.2048   91.6469   15.7368 C.ar    1  UNL1        0.0366
     31 C          66.2218   92.2717   14.8283 C.ar    1  UNL1        0.0031
     32 C          65.9888   92.2971   13.3468 C.ar    1  UNL1       -0.0001
     33 C          67.0058   92.9219   12.4383 C.ar    1  UNL1       -0.0000
     34 C          66.7729   92.9474   10.9566 C.ar    1  UNL1       -0.0000
     35 C          65.5230   92.3479   10.3836 C.ar    1  UNL1       -0.0000
     36 C          64.5060   91.7230   11.2921 C.ar    1  UNL1       -0.0002
     37 C          64.7390   91.6977   12.7737 C.ar    1  UNL1        0.0006
     38 O          62.9380   90.4226   16.0722 O.3     1  UNL1       -0.4717
     39 C          63.2583   89.1454   16.7909 C.3     1  UNL1        0.2525
     40 C          61.2040   85.8957    8.1207 C.3     1  UNL1        0.2357
     41 S          61.2593   85.0710    6.8689 S.O2    1  UNL1        0.0007
     42 C          61.3145   84.2464    5.6173 C.3     1  UNL1        0.1766
     43 O          62.7573   85.0568    6.9445 O.2     1  UNL1       -0.1725
     44 O          59.7613   85.0853    6.7934 O.2     1  UNL1       -0.1725
@<TRIPOS>BOND
     1    22    23    1
     2    23    20    1
     3    20    21    1
     4    20    16    1
     5    16    17    2
     6    16    18   am
     7     1    18    1
     8     1     2    1
     9     2     3    2
    10     2     4   am
    11     4    27    1
    12    27    28    1
    13    28    29   ar
    14    29    38    1
    15    38    39    1
    16    29    30   ar
    17    30    31   ar
    18    31    32   ar
    19    32    33   ar
    20    33    34   ar
    21    34    35   ar
    22    35    36   ar
    23    36    37   ar
    24     4     5    1
    25     5     6   ar
    26     6     7   ar
    27     7     8   ar
    28     8    25    1
    29    25    26    3
    30     8     9   ar
    31     9    10   ar
    32    10    11    1
    33    11    12   am
    34    12    13    2
    35    12    40    1
    36    40    41    1
    37    41    42    1
    38    41    43    2
    39    41    44    2
    40    11    14    1
    41    14    15    1
    42    14     1    1
    43    37    28   ar
    44    10     5   ar
    45    37    32   ar
    46    23    24    1
    47    18    19    1
@<TRIPOS>MOLECULE
*****
 44 47 0 0 0
SMALL
GASTEIGER

@<TRIPOS>ATOM
      1 C          61.8756   88.8307    9.6964 C.3     1  UNL1        0.1678
      2 C          62.2074   89.7779   10.8113 C.2     1  UNL1        0.2492
      3 O          61.9985   90.4792   10.4954 O.2     1  UNL1       -0.2727
      4 N          62.7819   89.4679   12.1618 N.am    1  UNL1       -0.2517
      5 C          63.1666   88.1345   12.7311 C.ar    1  UNL1        0.0679
      6 C          63.7056   88.2683   14.1244 C.ar    1  UNL1        0.0169
      7 C          64.1497   87.0492   14.8770 C.ar    1  UNL1        0.0116
      8 C          64.0548   85.6962   14.2362 C.ar    1  UNL1        0.0698
      9 C          63.5158   85.5624   12.8429 C.ar    1  UNL1        0.0264
     10 C          63.0717   86.7815   12.0903 C.ar    1  UNL1        0.0682
     11 N          62.5687   86.4280   10.7221 N.am    1  UNL1       -0.2555
     12 C          62.6025   84.9695   10.3731 C.2     1  UNL1        0.2535
     13 O          62.1218   84.5086    9.0289 O.2     1  UNL1       -0.2726
     14 C          62.0364   87.3399    9.6567 C.3     1  UNL1        0.1067
     15 C          61.6083   86.6728    8.3832 C.3     1  UNL1        0.0242
     16 C          59.9210   89.1060    8.0071 C.2     1  UNL1        0.2371
     17 O          59.1016   88.1279    8.7959 O.2     1  UNL1       -0.2737
     18 N          61.3080   89.4574    8.4574 N.am    1  UNL1       -0.2959
     19 H          61.8458   90.0993    7.9398 H       1  UNL1        0.1499
     20 C          59.3534   89.7326    6.7681 C.3     1  UNL1        0.1316
     21 C          57.8913   89.5971    6.4615 C.3     1  UNL1        0.0270
     22 C          59.6566   91.4573    4.8489 C.3     1  UNL1        0.0862
     23 N          60.2477   90.4947    5.8358 N.3     1  UNL1       -0.2902
     24 H          60.8931   91.0288    6.4178 H       1  UNL1        0.1237
     25 C          64.4990   84.4771   14.9889 C.1     1  UNL1        0.1005
     26 N          64.9431   83.2579   15.7415 N.1     1  UNL1       -0.1908
     27 C          63.0007   90.6475   13.0622 C.3     1  UNL1        0.1278
     28 C          64.3933   91.1312   13.3396 C.ar    1  UNL1        0.0320
     29 C          65.0148   90.8966   14.6844 C.ar    1  UNL1        0.1363
     30 C          66.4073   91.3802   14.9618 C.ar    1  UNL1        0.0366
     31 C          67.1783   92.0986   13.8943 C.ar    1  UNL1        0.0031
     32 C          66.5568   92.3332   12.5495 C.ar    1  UNL1       -0.0001
     33 C          67.3278   93.0515   11.4820 C.ar    1  UNL1       -0.0000
     34 C          66.7063   93.2862   10.1370 C.ar    1  UNL1       -0.0000
     35 C          65.3138   92.8025    9.8598 C.ar    1  UNL1       -0.0000
     36 C          64.5427   92.0842   10.9272 C.ar    1  UNL1       -0.0002
     37 C          65.1643   91.8495   12.2721 C.ar    1  UNL1        0.0006
     38 O          64.2438   90.1782   15.7519 O.3     1  UNL1       -0.4717
     39 C          63.4931   90.9594   16.7894 C.3     1  UNL1        0.2525
     40 C          63.1169   83.9719   11.3682 C.3     1  UNL1        0.2357
     41 S          63.3202   82.5427   10.9607 S.O2    1  UNL1        0.0007
     42 C          63.5236   81.1135   10.5533 C.3     1  UNL1        0.1766
     43 O          62.1496   82.1353   11.8056 O.2     1  UNL1       -0.1725
     44 O          64.4908   82.9501   10.1159 O.2     1  UNL1       -0.1725
@<TRIPOS>BOND
     1    22    23    1
     2    23    20    1
     3    20    21    1
     4    20    16    1
     5    16    17    2
     6    16    18   am
     7     1    18    1
     8     1     2    1
     9     2     3    2
    10     2     4   am
    11     4    27    1
    12    27    28    1
    13    28    29   ar
    14    29    38    1
    15    38    39    1
    16    29    30   ar
    17    30    31   ar
    18    31    32   ar
    19    32    33   ar
    20    33    34   ar
    21    34    35   ar
    22    35    36   ar
    23    36    37   ar
    24     4     5    1
    25     5     6   ar
    26     6     7   ar
    27     7     8   ar
    28     8    25    1
    29    25    26    3
    30     8     9   ar
    31     9    10   ar
    32    10    11    1
    33    11    12   am
    34    12    13    2
    35    12    40    1
    36    40    41    1
    37    41    42    1
    38    41    43    2
    39    41    44    2
    40    11    14    1
    41    14    15    1
    42    14     1    1
    43    37    28   ar
    44    10     5   ar
    45    37    32   ar
    46    23    24    1
    47    18    19    1
@<TRIPOS>MOLECULE
*****
 44 47 0 0 0
SMALL
GASTEIGER

@<TRIPOS>ATOM
      1 C          62.7493   88.6066   12.9149 C.3     1  UNL1        0.1678
      2 C          63.4129   87.2780   13.1258 C.2     1  UNL1        0.2492
      3 O          63.7204   87.3648   13.8561 O.2     1  UNL1       -0.2727
      4 N          63.4723   86.1039   12.1942 N.am    1  UNL1       -0.2517
      5 C          62.8828   85.9683   10.8216 C.ar    1  UNL1        0.0679
      6 C          63.1758   84.6215   10.2299 C.ar    1  UNL1        0.0169
      7 C          62.6743   84.2797    8.8582 C.ar    1  UNL1        0.0116
      8 C          61.8797   85.2848    8.0782 C.ar    1  UNL1        0.0698
      9 C          61.5867   86.6316    8.6698 C.ar    1  UNL1        0.0264
     10 C          62.0882   86.9734   10.0415 C.ar    1  UNL1        0.0682
     11 N          61.6870   88.3623   10.4415 N.am    1  UNL1       -0.2555
     12 C          60.8855   89.1252    9.4288 C.2     1  UNL1        0.2535
     13 O          60.4333   90.5236    9.7292 O.2     1  UNL1       -0.2726
     14 C          61.9811   89.0892   11.7202 C.3     1  UNL1        0.1067
     15 C          61.4350   90.4828   11.8172 C.3     1  UNL1        0.0242
     16 C          64.0905   90.4446   14.1689 C.2     1  UNL1        0.2371
     17 O          65.1911   90.3328   13.1558 O.2     1  UNL1       -0.2737
     18 N          62.8697   89.5815   14.0484 N.am    1  UNL1       -0.2959
     19 H          62.1474   89.6549   14.7134 H       1  UNL1        0.1499
     20 C          64.2109   91.4195   15.3025 C.3     1  UNL1        0.1316
     21 C          63.4041   91.2209   16.5514 C.3     1  UNL1        0.0270
     22 C          66.4284   92.6073   15.9520 C.3     1  UNL1        0.0862
     23 N          65.1381   92.5930   15.1872 N.3     1  UNL1       -0.2902
     24 H          65.3798   92.6814   14.2002 H       1  UNL1        0.1237
     25 C          61.3781   84.9430    6.7064 C.1     1  UNL1        0.1005
     26 N          60.8766   84.6011    5.3347 N.1     1  UNL1       -0.1908
     27 C          64.2202   84.9071   12.7024 C.3     1  UNL1        0.1278
     28 C          63.4751   83.7728   13.3414 C.ar    1  UNL1        0.0320
     29 C          62.9152   83.9277   14.7242 C.ar    1  UNL1        0.1363
     30 C          62.1700   82.7935   15.3632 C.ar    1  UNL1        0.0366
     31 C          61.9849   81.5043   14.6192 C.ar    1  UNL1        0.0031
     32 C          62.5448   81.3493   13.2363 C.ar    1  UNL1       -0.0001
     33 C          62.3596   80.0600   12.4924 C.ar    1  UNL1       -0.0000
     34 C          62.9195   79.9050   11.1094 C.ar    1  UNL1       -0.0000
     35 C          63.6646   81.0392   10.4705 C.ar    1  UNL1       -0.0000
     36 C          63.8498   82.3285   11.2144 C.ar    1  UNL1       -0.0002
     37 C          63.2899   82.4835   12.5974 C.ar    1  UNL1        0.0006
     38 O          63.1004   85.2170   15.4682 O.3     1  UNL1       -0.4717
     39 C          62.3558   85.4582   16.7479 C.3     1  UNL1        0.2525
     40 C          60.5362   88.4899    8.1156 C.3     1  UNL1        0.2357
     41 S          59.4136   89.0441    7.2894 S.O2    1  UNL1        0.0007
     42 C          58.2912   89.5983    6.4632 C.3     1  UNL1        0.1766
     43 O          58.4868   88.0088    7.8543 O.2     1  UNL1       -0.1725
     44 O          60.3405   90.0793    6.7245 O.2     1  UNL1       -0.1725
@<TRIPOS>BOND
     1    22    23    1
     2    23    20    1
     3    20    21    1
     4    20    16    1
     5    16    17    2
     6    16    18   am
     7     1    18    1
     8     1     2    1
     9     2     3    2
    10     2     4   am
    11     4    27    1
    12    27    28    1
    13    28    29   ar
    14    29    38    1
    15    38    39    1
    16    29    30   ar
    17    30    31   ar
    18    31    32   ar
    19    32    33   ar
    20    33    34   ar
    21    34    35   ar
    22    35    36   ar
    23    36    37   ar
    24     4     5    1
    25     5     6   ar
    26     6     7   ar
    27     7     8   ar
    28     8    25    1
    29    25    26    3
    30     8     9   ar
    31     9    10   ar
    32    10    11    1
    33    11    12   am
    34    12    13    2
    35    12    40    1
    36    40    41    1
    37    41    42    1
    38    41    43    2
    39    41    44    2
    40    11    14    1
    41    14    15    1
    42    14     1    1
    43    37    28   ar
    44    10     5   ar
    45    37    32   ar
    46    23    24    1
    47    18    19    1
@<TRIPOS>MOLECULE
*****
 44 47 0 0 0
SMALL
GASTEIGER

@<TRIPOS>ATOM
      1 C          59.7000   93.6357    0.3659 C.3     1  UNL1        0.1678
      2 C          58.7375   93.0758   -0.6392 C.2     1  UNL1        0.2492
      3 O          58.2284   92.6786   -0.1720 O.2     1  UNL1       -0.2727
      4 N          58.7465   93.2330   -2.1309 N.am    1  UNL1       -0.2517
      5 C          59.7201   93.9888   -2.9860 C.ar    1  UNL1        0.0679
      6 C          59.3637   93.8910   -4.4397 C.ar    1  UNL1        0.0169
      7 C          60.2124   94.5784   -5.4678 C.ar    1  UNL1        0.0116
      8 C          61.4174   95.3637   -5.0422 C.ar    1  UNL1        0.0698
      9 C          61.7738   95.4615   -3.5885 C.ar    1  UNL1        0.0264
     10 C          60.9252   94.7741   -2.5604 C.ar    1  UNL1        0.0682
     11 N          61.4543   94.9975   -1.1747 N.am    1  UNL1       -0.2555
     12 C          62.6924   95.8389   -1.0786 C.2     1  UNL1        0.2535
     13 O          63.3037   96.1235    0.2613 O.2     1  UNL1       -0.2726
     14 C          60.9091   94.4909    0.1277 C.3     1  UNL1        0.1067
     15 C          61.6740   94.8926    1.3538 C.3     1  UNL1        0.0242
     16 C          60.3922   92.4678    2.5811 C.2     1  UNL1        0.2371
     17 O          61.6530   91.9809    1.9304 O.2     1  UNL1       -0.2737
     18 N          59.4158   93.2952    1.7989 N.am    1  UNL1       -0.2959
     19 H          58.5883   93.6148    2.2260 H       1  UNL1        0.1499
     20 C          60.1080   92.1274    4.0140 C.3     1  UNL1        0.1316
     21 C          61.0404   91.2281    4.7704 C.3     1  UNL1        0.0270
     22 C          57.6671   91.8353    4.8546 C.3     1  UNL1        0.0862
     23 N          58.8915   92.6862    4.6906 N.3     1  UNL1       -0.2902
     24 H          59.1798   92.9709    5.6266 H       1  UNL1        0.1237
     25 C          62.2661   96.0512   -6.0705 C.1     1  UNL1        0.1005
     26 N          63.1148   96.7386   -7.0986 N.1     1  UNL1       -0.1908
     27 C          57.6349   92.5432   -2.8647 C.3     1  UNL1        0.1278
     28 C          56.7219   93.3318   -3.7561 C.ar    1  UNL1        0.0320
     29 C          56.5628   92.9458   -5.1968 C.ar    1  UNL1        0.1363
     30 C          55.6498   93.7343   -6.0882 C.ar    1  UNL1        0.0366
     31 C          54.8959   94.9089   -5.5388 C.ar    1  UNL1        0.0031
     32 C          55.0549   95.2950   -4.0981 C.ar    1  UNL1       -0.0001
     33 C          54.3010   96.4696   -3.5488 C.ar    1  UNL1       -0.0000
     34 C          54.4600   96.8557   -2.1080 C.ar    1  UNL1       -0.0000
     35 C          55.3731   96.0671   -1.2167 C.ar    1  UNL1       -0.0000
     36 C          56.1270   94.8925   -1.7660 C.ar    1  UNL1       -0.0002
     37 C          55.9679   94.5064   -3.2067 C.ar    1  UNL1        0.0006
     38 O          57.3167   91.7711   -5.7461 O.3     1  UNL1       -0.4717
     39 C          57.1658   91.3914   -7.1895 C.3     1  UNL1        0.2525
     40 C          63.3192   96.3957   -2.3225 C.3     1  UNL1        0.2357
     41 S          64.8010   96.6222   -2.3788 S.O2    1  UNL1        0.0007
     42 C          66.2826   96.8487   -2.4350 C.3     1  UNL1        0.1766
     43 O          64.7659   96.4802   -3.8716 O.2     1  UNL1       -0.1725
     44 O          64.8359   96.7641   -0.8859 O.2     1  UNL1       -0.1725
@<TRIPOS>BOND
     1    22    23    1
     2    23    20    1
     3    20    21    1
     4    20    16    1
     5    16    17    2
     6    16    18   am
     7     1    18    1
     8     1     2    1
     9     2     3    2
    10     2     4   am
    11     4    27    1
    12    27    28    1
    13    28    29   ar
    14    29    38    1
    15    38    39    1
    16    29    30   ar
    17    30    31   ar
    18    31    32   ar
    19    32    33   ar
    20    33    34   ar
    21    34    35   ar
    22    35    36   ar
    23    36    37   ar
    24     4     5    1
    25     5     6   ar
    26     6     7   ar
    27     7     8   ar
    28     8    25    1
    29    25    26    3
    30     8     9   ar
    31     9    10   ar
    32    10    11    1
    33    11    12   am
    34    12    13    2
    35    12    40    1
    36    40    41    1
    37    41    42    1
    38    41    43    2
    39    41    44    2
    40    11    14    1
    41    14    15    1
    42    14     1    1
    43    37    28   ar
    44    10     5   ar
    45    37    32   ar
    46    23    24    1
    47    18    19    1
@<TRIPOS>MOLECULE
*****
 44 47 0 0 0
SMALL
GASTEIGER

@<TRIPOS>ATOM
      1 C          62.8908   89.8838   14.9016 C.3     1  UNL1        0.1678
      2 C          62.3053   89.7139   13.5310 C.2     1  UNL1        0.2492
      3 O          61.7245   89.1854   13.6676 O.2     1  UNL1       -0.2727
      4 N          62.7182   90.3746   12.2493 N.am    1  UNL1       -0.2517
      5 C          63.8185   91.3684   12.0214 C.ar    1  UNL1        0.0679
      6 C          63.8952   91.7803   10.5811 C.ar    1  UNL1        0.0169
      7 C          64.9311   92.7708   10.1386 C.ar    1  UNL1        0.0116
      8 C          65.8903   93.3493   11.1363 C.ar    1  UNL1        0.0698
      9 C          65.8135   92.9373   12.5765 C.ar    1  UNL1        0.0264
     10 C          64.7776   91.9469   13.0190 C.ar    1  UNL1        0.0682
     11 N          64.8733   91.6745   14.4910 N.am    1  UNL1       -0.2555
     12 C          65.9514   92.4187   15.2218 C.2     1  UNL1        0.2535
     13 O          66.1329   92.2186   16.6973 O.2     1  UNL1       -0.2726
     14 C          64.0337   90.7564   15.3289 C.3     1  UNL1        0.1067
     15 C          64.3830   90.7038   16.7866 C.3     1  UNL1        0.0242
     16 C          62.9202   87.8327   16.4959 C.2     1  UNL1        0.2371
     17 O          64.2345   87.4008   15.9160 O.2     1  UNL1       -0.2737
     18 N          62.2484   89.0742   15.9887 N.am    1  UNL1       -0.2959
     19 H          61.3858   89.3576   16.3692 H       1  UNL1        0.1499
     20 C          62.2778   87.0230   17.5830 C.3     1  UNL1        0.1316
     21 C          62.5589   87.3419   19.0215 C.3     1  UNL1        0.0270
     22 C          61.7426   84.9112   16.1674 C.3     1  UNL1        0.0862
     23 N          61.3543   85.8945   17.2315 N.3     1  UNL1       -0.2902
     24 H          61.2048   85.3591   18.0868 H       1  UNL1        0.1237
     25 C          66.9262   94.3398   10.6936 C.1     1  UNL1        0.1005
     26 N          67.9621   95.3302   10.2510 N.1     1  UNL1       -0.1908
     27 C          61.9261   89.9908   11.0347 C.3     1  UNL1        0.1278
     28 C          61.8154   88.5489   10.6363 C.ar    1  UNL1        0.0320
     29 C          62.6101   87.5063   11.3651 C.ar    1  UNL1        0.1363
     30 C          62.4994   86.0644   10.9668 C.ar    1  UNL1        0.0366
     31 C          61.5940   85.6652    9.8395 C.ar    1  UNL1        0.0031
     32 C          60.7993   86.7078    9.1106 C.ar    1  UNL1       -0.0001
     33 C          59.8939   86.3085    7.9833 C.ar    1  UNL1       -0.0000
     34 C          59.0991   87.3512    7.2543 C.ar    1  UNL1       -0.0000
     35 C          59.2098   88.7930    7.6528 C.ar    1  UNL1       -0.0000
     36 C          60.1152   89.1923    8.7801 C.ar    1  UNL1       -0.0002
     37 C          60.9099   88.1496    9.5089 C.ar    1  UNL1        0.0006
     38 O          63.5155   87.9055   12.4924 O.3     1  UNL1       -0.4717
     39 C          64.1154   86.8559   13.3804 C.3     1  UNL1        0.2525
     40 C          66.8480   93.3629   14.4771 C.3     1  UNL1        0.2357
     41 S          68.3012   93.4579   14.8365 S.O2    1  UNL1        0.0007
     42 C          69.7544   93.5527   15.1958 C.3     1  UNL1        0.1766
     43 O          67.9828   94.5240   15.8425 O.2     1  UNL1       -0.1725
     44 O          68.6196   92.3917   13.8305 O.2     1  UNL1       -0.1725
@<TRIPOS>BOND
     1    22    23    1
     2    23    20    1
     3    20    21    1
     4    20    16    1
     5    16    17    2
     6    16    18   am
     7     1    18    1
     8     1     2    1
     9     2     3    2
    10     2     4   am
    11     4    27    1
    12    27    28    1
    13    28    29   ar
    14    29    38    1
    15    38    39    1
    16    29    30   ar
    17    30    31   ar
    18    31    32   ar
    19    32    33   ar
    20    33    34   ar
    21    34    35   ar
    22    35    36   ar
    23    36    37   ar
    24     4     5    1
    25     5     6   ar
    26     6     7   ar
    27     7     8   ar
    28     8    25    1
    29    25    26    3
    30     8     9   ar
    31     9    10   ar
    32    10    11    1
    33    11    12   am
    34    12    13    2
    35    12    40    1
    36    40    41    1
    37    41    42    1
    38    41    43    2
    39    41    44    2
    40    11    14    1
    41    14    15    1
    42    14     1    1
    43    37    28   ar
    44    10     5   ar
    45    37    32   ar
    46    23    24    1
    47    18    19    1
@<TRIPOS>MOLECULE
*****
 44 47 0 0 0
SMALL
GASTEIGER

@<TRIPOS>ATOM
      1 C          63.2868   88.6876   13.5962 C.3     1  UNL1        0.1678
      2 C          62.9443   88.7506   12.1372 C.2     1  UNL1        0.2492
      3 O          62.5313   88.0761   12.0387 O.2     1  UNL1       -0.2727
      4 N          63.2958   89.8138   11.1392 N.am    1  UNL1       -0.2517
      5 C          64.0767   91.0765   11.3536 C.ar    1  UNL1        0.0679
      6 C          64.2008   91.8663   10.0844 C.ar    1  UNL1        0.0169
      7 C          64.9471   93.1674   10.0807 C.ar    1  UNL1        0.0116
      8 C          65.5693   93.6788   11.3462 C.ar    1  UNL1        0.0698
      9 C          65.4452   92.8890   12.6154 C.ar    1  UNL1        0.0264
     10 C          64.6989   91.5879   12.6190 C.ar    1  UNL1        0.0682
     11 N          64.6938   90.9628   13.9826 N.am    1  UNL1       -0.2555
     12 C          65.4123   91.7300   15.0528 C.2     1  UNL1        0.2535
     13 O          65.4671   91.1928   16.4523 O.2     1  UNL1       -0.2726
     14 C          64.0655   89.6721   14.4176 C.3     1  UNL1        0.1067
     15 C          64.2386   89.3192   15.8651 C.3     1  UNL1        0.0242
     16 C          63.7477   86.4252   14.7874 C.2     1  UNL1        0.2371
     17 O          65.2138   86.5771   14.5088 O.2     1  UNL1       -0.2737
     18 N          62.7843   87.4804   14.3311 N.am    1  UNL1       -0.2959
     19 H          61.8220   87.3806   14.5140 H       1  UNL1        0.1499
     20 C          63.2452   85.2180   15.5223 C.3     1  UNL1        0.1316
     21 C          63.6861   83.8470   15.1026 C.3     1  UNL1        0.0270
     22 C          62.6143   86.3627   17.7676 C.3     1  UNL1        0.0862
     23 N          62.3017   85.3817   16.6769 N.3     1  UNL1       -0.2902
     24 H          61.4007   85.6549   16.2844 H       1  UNL1        0.1237
     25 C          66.3156   94.9800   11.3425 C.1     1  UNL1        0.1005
     26 N          67.0620   96.2811   11.3387 N.1     1  UNL1       -0.1908
     27 C          62.8011   89.5840    9.7419 C.3     1  UNL1        0.1278
     28 C          61.6160   88.6960    9.5024 C.ar    1  UNL1        0.0320
     29 C          60.2331   89.1942    9.8008 C.ar    1  UNL1        0.1363
     30 C          59.0481   88.3063    9.5614 C.ar    1  UNL1        0.0366
     31 C          59.2461   86.9201    9.0235 C.ar    1  UNL1        0.0031
     32 C          60.6290   86.4219    8.7252 C.ar    1  UNL1       -0.0001
     33 C          60.8271   85.0357    8.1873 C.ar    1  UNL1       -0.0000
     34 C          62.2101   84.5374    7.8889 C.ar    1  UNL1       -0.0000
     35 C          63.3950   85.4254    8.1284 C.ar    1  UNL1       -0.0000
     36 C          63.1971   86.8116    8.6662 C.ar    1  UNL1       -0.0002
     37 C          61.8141   87.3098    8.9646 C.ar    1  UNL1        0.0006
     38 O          60.0351   90.5804   10.3386 O.3     1  UNL1       -0.4717
     39 C          59.3366   90.7833   11.6506 C.3     1  UNL1        0.2525
     40 C          66.0759   93.0343   14.7236 C.3     1  UNL1        0.2357
     41 S          67.4762   93.3021   15.1901 S.O2    1  UNL1        0.0007
     42 C          68.8764   93.5699   15.6565 C.3     1  UNL1        0.1766
     43 O          66.9666   93.5461   16.5796 O.2     1  UNL1       -0.1725
     44 O          67.9857   93.0581   13.8006 O.2     1  UNL1       -0.1725
@<TRIPOS>BOND
     1    22    23    1
     2    23    20    1
     3    20    21    1
     4    20    16    1
     5    16    17    2
     6    16    18   am
     7     1    18    1
     8     1     2    1
     9     2     3    2
    10     2     4   am
    11     4    27    1
    12    27    28    1
    13    28    29   ar
    14    29    38    1
    15    38    39    1
    16    29    30   ar
    17    30    31   ar
    18    31    32   ar
    19    32    33   ar
    20    33    34   ar
    21    34    35   ar
    22    35    36   ar
    23    36    37   ar
    24     4     5    1
    25     5     6   ar
    26     6     7   ar
    27     7     8   ar
    28     8    25    1
    29    25    26    3
    30     8     9   ar
    31     9    10   ar
    32    10    11    1
    33    11    12   am
    34    12    13    2
    35    12    40    1
    36    40    41    1
    37    41    42    1
    38    41    43    2
    39    41    44    2
    40    11    14    1
    41    14    15    1
    42    14     1    1
    43    37    28   ar
    44    10     5   ar
    45    37    32   ar
    46    23    24    1
    47    18    19    1
@<TRIPOS>MOLECULE
*****
 44 47 0 0 0
SMALL
GASTEIGER

@<TRIPOS>ATOM
      1 C          62.5239   84.0820   12.3680 C.3     1  UNL1        0.1678
      2 C          62.4757   85.0311   11.2074 C.2     1  UNL1        0.2492
      3 O          62.2947   84.5413   10.6052 O.2     1  UNL1       -0.2727
      4 N          62.7099   86.5127   11.2007 N.am    1  UNL1       -0.2517
      5 C          63.0500   87.4111   12.3527 C.ar    1  UNL1        0.0679
      6 C          63.2006   88.8364   11.9103 C.ar    1  UNL1        0.0169
      7 C          63.5411   89.9004   12.9112 C.ar    1  UNL1        0.0116
      8 C          63.7311   89.5391   14.3546 C.ar    1  UNL1        0.0698
      9 C          63.5806   88.1138   14.7970 C.ar    1  UNL1        0.0264
     10 C          63.2400   87.0498   13.7961 C.ar    1  UNL1        0.0682
     11 N          63.1368   85.7008   14.4439 N.am    1  UNL1       -0.2555
     12 C          63.3851   85.6684   15.9228 C.2     1  UNL1        0.2535
     13 O          63.3065   84.3690   16.6682 O.2     1  UNL1       -0.2726
     14 C          62.8181   84.3800   13.8084 C.3     1  UNL1        0.1067
     15 C          62.7899   83.2014   14.7358 C.3     1  UNL1        0.0242
     16 C          63.3250   81.7740   11.4840 C.2     1  UNL1        0.2371
     17 O          64.6932   82.3405   11.2449 O.2     1  UNL1       -0.2737
     18 N          62.2404   82.6447   12.0455 N.am    1  UNL1       -0.2959
     19 H          61.3424   82.2730   12.2025 H       1  UNL1        0.1499
     20 C          63.0414   80.3368   11.1615 C.3     1  UNL1        0.1316
     21 C          63.0886   79.8639    9.7387 C.3     1  UNL1        0.0270
     22 C          62.2154   79.8825   13.5825 C.3     1  UNL1        0.0862
     23 N          62.7108   79.3724   12.2618 N.3     1  UNL1       -0.2902
     24 H          61.9911   78.7472   11.8989 H       1  UNL1        0.1237
     25 C          64.0717   90.6032   15.3555 C.1     1  UNL1        0.1005
     26 N          64.4122   91.6672   16.3564 N.1     1  UNL1       -0.1908
     27 C          62.5878   87.1848    9.8652 C.3     1  UNL1        0.1278
     28 C          61.3975   86.9116    8.9942 C.ar    1  UNL1        0.0320
     29 C          60.0942   87.6021    9.2670 C.ar    1  UNL1        0.1363
     30 C          58.9039   87.3289    8.3960 C.ar    1  UNL1        0.0366
     31 C          59.0171   86.3652    7.2521 C.ar    1  UNL1        0.0031
     32 C          60.3204   85.6748    6.9793 C.ar    1  UNL1       -0.0001
     33 C          60.4335   84.7111    5.8353 C.ar    1  UNL1       -0.0000
     34 C          61.7369   84.0205    5.5624 C.ar    1  UNL1       -0.0000
     35 C          62.9271   84.2938    6.4335 C.ar    1  UNL1       -0.0000
     36 C          62.8140   85.2574    7.5774 C.ar    1  UNL1       -0.0002
     37 C          61.5106   85.9479    7.8503 C.ar    1  UNL1        0.0006
     38 O          59.9810   88.5657   10.4109 O.3     1  UNL1       -0.4717
     39 C          60.1293   90.0386   10.1684 C.3     1  UNL1        0.2525
     40 C          63.7121   86.9353   16.6565 C.3     1  UNL1        0.2357
     41 S          63.0585   87.2289   17.9742 S.O2    1  UNL1        0.0007
     42 C          62.4049   87.5225   19.2919 C.3     1  UNL1        0.1766
     43 O          62.8116   85.7635   18.1782 O.2     1  UNL1       -0.1725
     44 O          63.3054   88.6943   17.7702 O.2     1  UNL1       -0.1725
@<TRIPOS>BOND
     1    22    23    1
     2    23    20    1
     3    20    21    1
     4    20    16    1
     5    16    17    2
     6    16    18   am
     7     1    18    1
     8     1     2    1
     9     2     3    2
    10     2     4   am
    11     4    27    1
    12    27    28    1
    13    28    29   ar
    14    29    38    1
    15    38    39    1
    16    29    30   ar
    17    30    31   ar
    18    31    32   ar
    19    32    33   ar
    20    33    34   ar
    21    34    35   ar
    22    35    36   ar
    23    36    37   ar
    24     4     5    1
    25     5     6   ar
    26     6     7   ar
    27     7     8   ar
    28     8    25    1
    29    25    26    3
    30     8     9   ar
    31     9    10   ar
    32    10    11    1
    33    11    12   am
    34    12    13    2
    35    12    40    1
    36    40    41    1
    37    41    42    1
    38    41    43    2
    39    41    44    2
    40    11    14    1
    41    14    15    1
    42    14     1    1
    43    37    28   ar
    44    10     5   ar
    45    37    32   ar
    46    23    24    1
    47    18    19    1
