@<TRIPOS>MOLECULE
*****
 35 39 0 0 0
SMALL
GASTEIGER

@<TRIPOS>ATOM
      1 N          62.5488   90.4579   11.1126 N.ar    1  UNL1       -0.2937
      2 C          61.8720   91.3653   10.1285 C.ar    1  UNL1        0.1798
      3 N          61.0060   90.5222    9.2401 N.ar    1  UNL1       -0.2195
      4 C          61.1476   89.0936    9.6752 C.ar    1  UNL1        0.1483
      5 C          60.5315   87.8239    9.1671 C.ar    1  UNL1        0.1516
      6 N          60.8688   86.5144    9.8163 N.ar    1  UNL1       -0.2031
      7 C          61.8223   86.4747   10.9736 C.ar    1  UNL1        0.2094
      8 N          62.4384   87.7445   11.4817 N.ar    1  UNL1       -0.2003
      9 C          62.1011   89.0539   10.8325 C.ar    1  UNL1        0.1678
     10 C          65.4029   91.8735   13.3297 C.3     1  UNL1        0.0977
     11 C          66.0365   92.4573   12.1018 C.3     1  UNL1        0.0136
     12 C          64.7561   91.6840   11.9896 C.3     1  UNL1        0.0344
     13 C          63.5053   90.8802   12.1881 C.3     1  UNL1        0.1180
     14 C          63.3789   90.5730   13.6508 C.3     1  UNL1        0.1582
     15 O          62.2739   89.7895   14.2949 O.3     1  UNL1       -0.3800
     16 C          64.5517   91.1869   14.3564 C.3     1  UNL1        0.1471
     17 O          64.8253   91.1250   15.8299 O.3     1  UNL1       -0.3814
     18 H          62.4300   89.7361   15.2508 H       1  UNL1        0.2105
     19 H          64.1217   90.6216   16.2685 H       1  UNL1        0.2105
     20 C          68.6745   92.0026   15.5724 C.3     1  UNL1        0.1107
     21 N          67.6342   91.5108   14.6101 N.am    1  UNL1       -0.3026
     22 C          66.4432   92.3653   14.2920 C.2     1  UNL1        0.2240
     23 O          66.2924   93.7116   14.9360 O.2     1  UNL1       -0.2750
     24 H          67.7331   90.6272   14.1874 H       1  UNL1        0.1495
     25 N          59.5780   87.8637    8.0098 N.pl3   1  UNL1       -0.3153
     26 C          58.9365   86.5982    7.5228 C.3     1  UNL1        0.1097
     27 H          59.3732   88.7203    7.5699 H       1  UNL1        0.1483
     28 C          62.1596   85.1652   11.6228 C.1     1  UNL1       -0.0195
     29 C          62.4970   83.8558   12.2721 C.1     1  UNL1       -0.0359
     30 C          62.8344   82.5463   12.9213 C.ar    1  UNL1        0.1421
     31 C          64.0734   82.4210   13.7575 C.ar    1  UNL1        0.1264
     32 N          64.4108   81.1116   14.4067 N.ar    1  UNL1       -0.2385
     33 C          63.5092   79.9274   14.2197 C.ar    1  UNL1        0.1196
     34 C          62.2703   80.0526   13.3835 C.ar    1  UNL1        0.1202
     35 N          61.9329   81.3622   12.7343 N.ar    1  UNL1       -0.2324
@<TRIPOS>BOND
     1    20    21    1
     2    21    22   am
     3    22    23    2
     4    10    22    1
     5    10    11    1
     6    12    11    1
     7    12    13    1
     8    13     1    1
     9     1     2   ar
    10     2     3   ar
    11     3     4   ar
    12     4     5   ar
    13     5    25    1
    14    25    26    1
    15     5     6   ar
    16     6     7   ar
    17     7    28    1
    18    28    29    3
    19    29    30    1
    20    30    31   ar
    21    31    32   ar
    22    32    33   ar
    23    33    34   ar
    24    34    35   ar
    25     7     8   ar
    26     8     9   ar
    27    13    14    1
    28    14    15    1
    29    14    16    1
    30    16    17    1
    31    12    10    1
    32     9     1   ar
    33    16    10    1
    34     9     4   ar
    35    35    30   ar
    36    21    24    1
    37    25    27    1
    38    15    18    1
    39    17    19    1
@<TRIPOS>MOLECULE
*****
 35 39 0 0 0
SMALL
GASTEIGER

@<TRIPOS>ATOM
      1 N          61.3367   86.0573    9.5271 N.ar    1  UNL1       -0.2937
      2 C          60.2334   85.7650    8.5539 C.ar    1  UNL1        0.1798
      3 N          59.7116   87.0733    8.0382 N.ar    1  UNL1       -0.2195
      4 C          60.4924   88.1742    8.6927 C.ar    1  UNL1        0.1483
      5 C          60.4185   89.6673    8.5695 C.ar    1  UNL1        0.1516
      6 N          61.3491   90.5326    9.3667 N.ar    1  UNL1       -0.2031
      7 C          62.3535   89.9046   10.2870 C.ar    1  UNL1        0.2094
      8 N          62.4273   88.4115   10.4101 N.ar    1  UNL1       -0.2003
      9 C          61.4968   87.5463    9.6129 C.ar    1  UNL1        0.1678
     10 C          63.0430   83.6858   12.0825 C.3     1  UNL1        0.0977
     11 C          62.2289   84.3138   13.1747 C.3     1  UNL1        0.0136
     12 C          62.0754   84.7854   11.7591 C.3     1  UNL1        0.0344
     13 C          62.1391   85.0394   10.2821 C.3     1  UNL1        0.1180
     14 C          63.1461   84.0968    9.6927 C.3     1  UNL1        0.1582
     15 O          63.5275   84.0066    8.2448 O.3     1  UNL1       -0.3800
     16 C          63.7048   83.2602   10.8054 C.3     1  UNL1        0.1471
     17 O          64.7429   82.1866   10.6655 O.3     1  UNL1       -0.3814
     18 H          64.1996   83.3167    8.1298 H       1  UNL1        0.2105
     19 H          65.0055   82.1100    9.7349 H       1  UNL1        0.2105
     20 C          63.9707   80.3594   14.0381 C.3     1  UNL1        0.1107
     21 N          63.2418   81.3273   13.1537 N.am    1  UNL1       -0.3026
     22 C          63.7719   82.7179   12.9669 C.2     1  UNL1        0.2240
     23 O          65.0308   83.1408   13.6642 O.2     1  UNL1       -0.2750
     24 H          62.4155   81.0498   12.6960 H       1  UNL1        0.1495
     25 N          59.4141   90.2952    7.6493 N.pl3   1  UNL1       -0.3153
     26 C          59.4114   89.9449    6.1907 C.3     1  UNL1        0.1097
     27 H          58.7566   90.9372    8.0026 H       1  UNL1        0.1483
     28 C          63.2841   90.7698   11.0841 C.1     1  UNL1       -0.0195
     29 C          64.2146   91.6350   11.8813 C.1     1  UNL1       -0.0359
     30 C          65.1453   92.5002   12.6784 C.ar    1  UNL1        0.1421
     31 C          65.8347   93.6611   12.0249 C.ar    1  UNL1        0.1264
     32 N          66.7653   94.5263   12.8219 N.ar    1  UNL1       -0.2385
     33 C          67.0065   94.2306   14.2726 C.ar    1  UNL1        0.1196
     34 C          66.3172   93.0697   14.9262 C.ar    1  UNL1        0.1202
     35 N          65.3865   92.2045   14.1290 N.ar    1  UNL1       -0.2324
@<TRIPOS>BOND
     1    20    21    1
     2    21    22   am
     3    22    23    2
     4    10    22    1
     5    10    11    1
     6    12    11    1
     7    12    13    1
     8    13     1    1
     9     1     2   ar
    10     2     3   ar
    11     3     4   ar
    12     4     5   ar
    13     5    25    1
    14    25    26    1
    15     5     6   ar
    16     6     7   ar
    17     7    28    1
    18    28    29    3
    19    29    30    1
    20    30    31   ar
    21    31    32   ar
    22    32    33   ar
    23    33    34   ar
    24    34    35   ar
    25     7     8   ar
    26     8     9   ar
    27    13    14    1
    28    14    15    1
    29    14    16    1
    30    16    17    1
    31    12    10    1
    32     9     1   ar
    33    16    10    1
    34     9     4   ar
    35    35    30   ar
    36    21    24    1
    37    25    27    1
    38    15    18    1
    39    17    19    1
@<TRIPOS>MOLECULE
*****
 35 39 0 0 0
SMALL
GASTEIGER

@<TRIPOS>ATOM
      1 N          61.7040   85.9850   10.6285 N.ar    1  UNL1       -0.2937
      2 C          60.6373   85.8225    9.5866 C.ar    1  UNL1        0.1798
      3 N          60.2398   87.1891    9.1131 N.ar    1  UNL1       -0.2195
      4 C          61.0608   88.1963    9.8625 C.ar    1  UNL1        0.1483
      5 C          61.1013   89.6949    9.8130 C.ar    1  UNL1        0.1516
      6 N          62.0467   90.4494   10.7001 N.ar    1  UNL1       -0.2031
      7 C          62.9517   89.7052   11.6367 C.ar    1  UNL1        0.2094
      8 N          62.9112   88.2065   11.6862 N.ar    1  UNL1       -0.2003
      9 C          61.9657   87.4521   10.7991 C.ar    1  UNL1        0.1678
     10 C          63.0732   83.3570   13.1353 C.3     1  UNL1        0.0977
     11 C          62.2084   83.9583   14.2032 C.3     1  UNL1        0.0136
     12 C          62.1937   84.5295   12.8164 C.3     1  UNL1        0.0344
     13 C          62.3888   84.8753   11.3698 C.3     1  UNL1        0.1180
     14 C          63.3888   83.9165   10.7948 C.3     1  UNL1        0.1582
     15 O          63.8796   83.8991    9.3775 O.3     1  UNL1       -0.3800
     16 C          63.8118   82.9781   11.8860 C.3     1  UNL1        0.1471
     17 O          64.7999   81.8576   11.7514 O.3     1  UNL1       -0.3814
     18 H          64.5216   83.1804    9.2664 H       1  UNL1        0.2105
     19 H          65.1318   81.8269   10.8404 H       1  UNL1        0.2105
     20 C          63.8435   79.8017   14.7219 C.3     1  UNL1        0.1107
     21 N          63.2397   80.8659   13.8540 N.am    1  UNL1       -0.3026
     22 C          63.6771   82.2929   14.0032 C.2     1  UNL1        0.2240
     23 O          64.7182   82.6559   15.0202 O.2     1  UNL1       -0.2750
     24 H          62.5563   80.6277   13.1865 H       1  UNL1        0.1495
     25 N          60.1963   90.4391    8.8764 N.pl3   1  UNL1       -0.3153
     26 C          59.7709   89.8073    7.5841 C.3     1  UNL1        0.1097
     27 H          59.8815   91.3423    9.1098 H       1  UNL1        0.1483
     28 C          63.8972   90.4596   12.5238 C.1     1  UNL1       -0.0195
     29 C          64.8426   91.2140   13.4109 C.1     1  UNL1       -0.0359
     30 C          65.7881   91.9684   14.2981 C.ar    1  UNL1        0.1421
     31 C          65.4397   92.2028   15.7381 C.ar    1  UNL1        0.1264
     32 N          66.3850   92.9572   16.6253 N.ar    1  UNL1       -0.2385
     33 C          67.6789   93.4772   16.0724 C.ar    1  UNL1        0.1196
     34 C          68.0273   93.2427   14.6324 C.ar    1  UNL1        0.1202
     35 N          67.0819   92.4883   13.7452 N.ar    1  UNL1       -0.2324
@<TRIPOS>BOND
     1    20    21    1
     2    21    22   am
     3    22    23    2
     4    10    22    1
     5    10    11    1
     6    12    11    1
     7    12    13    1
     8    13     1    1
     9     1     2   ar
    10     2     3   ar
    11     3     4   ar
    12     4     5   ar
    13     5    25    1
    14    25    26    1
    15     5     6   ar
    16     6     7   ar
    17     7    28    1
    18    28    29    3
    19    29    30    1
    20    30    31   ar
    21    31    32   ar
    22    32    33   ar
    23    33    34   ar
    24    34    35   ar
    25     7     8   ar
    26     8     9   ar
    27    13    14    1
    28    14    15    1
    29    14    16    1
    30    16    17    1
    31    12    10    1
    32     9     1   ar
    33    16    10    1
    34     9     4   ar
    35    35    30   ar
    36    21    24    1
    37    25    27    1
    38    15    18    1
    39    17    19    1
@<TRIPOS>MOLECULE
*****
 35 39 0 0 0
SMALL
GASTEIGER

@<TRIPOS>ATOM
      1 N          61.4243   86.5439   10.8407 N.ar    1  UNL1       -0.2937
      2 C          60.1040   86.5717   10.1293 C.ar    1  UNL1        0.1798
      3 N          59.6425   87.9974   10.0642 N.ar    1  UNL1       -0.2195
      4 C          60.6775   88.8508   10.7354 C.ar    1  UNL1        0.1483
      5 C          60.7594   90.3298   10.9716 C.ar    1  UNL1        0.1516
      6 N          61.9426   90.9106   11.6878 N.ar    1  UNL1       -0.2031
      7 C          63.0439   90.0123   12.1677 C.ar    1  UNL1        0.2094
      8 N          62.9619   88.5332   11.9315 N.ar    1  UNL1       -0.2003
      9 C          61.7787   87.9525   11.2154 C.ar    1  UNL1        0.1678
     10 C          63.3107   83.4771   12.2904 C.3     1  UNL1        0.0977
     11 C          62.7494   83.7999   13.6434 C.3     1  UNL1        0.0136
     12 C          62.4059   84.6608   12.4641 C.3     1  UNL1        0.0344
     13 C          62.2459   85.3221   11.1273 C.3     1  UNL1        0.1180
     14 C          63.0519   84.5472   10.1273 C.3     1  UNL1        0.1582
     15 O          63.1777   84.8579    8.6653 O.3     1  UNL1       -0.3800
     16 C          63.7100   83.4068   10.8461 C.3     1  UNL1        0.1471
     17 O          64.6093   82.3771   10.2291 O.3     1  UNL1       -0.3814
     18 H          63.7564   84.2032    8.2442 H       1  UNL1        0.2105
     19 H          64.7056   82.5584    9.2811 H       1  UNL1        0.2105
     20 C          64.2162   80.0341   14.0443 C.3     1  UNL1        0.1107
     21 N          63.4407   81.2419   13.6083 N.am    1  UNL1       -0.3026
     22 C          64.0861   82.2693   12.7263 C.2     1  UNL1        0.2240
     23 O          65.5069   82.0889   12.2802 O.2     1  UNL1       -0.2750
     24 H          62.5082   81.3603   13.9011 H       1  UNL1        0.1495
     25 N          59.6582   91.2281   10.4917 N.pl3   1  UNL1       -0.3153
     26 C          58.5668   91.6452   11.4326 C.3     1  UNL1        0.1097
     27 H          59.6516   91.5439    9.5593 H       1  UNL1        0.1483
     28 C          64.2270   90.5929   12.8838 C.1     1  UNL1       -0.0195
     29 C          65.4102   91.1736   13.5999 C.1     1  UNL1       -0.0359
     30 C          66.5935   91.7543   14.3161 C.ar    1  UNL1        0.1421
     31 C          67.9126   91.8724   13.6118 C.ar    1  UNL1        0.1264
     32 N          69.0958   92.4530   14.3279 N.ar    1  UNL1       -0.2385
     33 C          68.9599   92.9156   15.7483 C.ar    1  UNL1        0.1196
     34 C          67.6408   92.7975   16.4526 C.ar    1  UNL1        0.1202
     35 N          66.4576   92.2169   15.7365 N.ar    1  UNL1       -0.2324
@<TRIPOS>BOND
     1    20    21    1
     2    21    22   am
     3    22    23    2
     4    10    22    1
     5    10    11    1
     6    12    11    1
     7    12    13    1
     8    13     1    1
     9     1     2   ar
    10     2     3   ar
    11     3     4   ar
    12     4     5   ar
    13     5    25    1
    14    25    26    1
    15     5     6   ar
    16     6     7   ar
    17     7    28    1
    18    28    29    3
    19    29    30    1
    20    30    31   ar
    21    31    32   ar
    22    32    33   ar
    23    33    34   ar
    24    34    35   ar
    25     7     8   ar
    26     8     9   ar
    27    13    14    1
    28    14    15    1
    29    14    16    1
    30    16    17    1
    31    12    10    1
    32     9     1   ar
    33    16    10    1
    34     9     4   ar
    35    35    30   ar
    36    21    24    1
    37    25    27    1
    38    15    18    1
    39    17    19    1
@<TRIPOS>MOLECULE
*****
 35 39 0 0 0
SMALL
GASTEIGER

@<TRIPOS>ATOM
      1 N          61.8074   86.0632   11.5651 N.ar    1  UNL1       -0.2937
      2 C          61.5374   84.5965   11.7259 C.ar    1  UNL1        0.1798
      3 N          62.4168   84.0813   12.8264 N.ar    1  UNL1       -0.2195
      4 C          63.2302   85.2295   13.3459 C.ar    1  UNL1        0.1483
      5 C          64.2651   85.3180   14.4280 C.ar    1  UNL1        0.1516
      6 N          64.9235   86.6315   14.7306 N.ar    1  UNL1       -0.2031
      7 C          64.5468   87.8564   13.9511 C.ar    1  UNL1        0.2094
      8 N          63.5118   87.7679   12.8689 N.ar    1  UNL1       -0.2003
      9 C          62.8535   86.4545   12.5664 C.ar    1  UNL1        0.1678
     10 C          60.0555   87.8138    8.5765 C.3     1  UNL1        0.0977
     11 C          60.0452   86.5044    7.8448 C.3     1  UNL1        0.0136
     12 C          60.6369   86.5901    9.2205 C.3     1  UNL1        0.0344
     13 C          61.1471   86.9781   10.5767 C.3     1  UNL1        0.1180
     14 C          60.8810   88.4414   10.7709 C.3     1  UNL1        0.1582
     15 O          61.2286   89.2469   11.9876 O.3     1  UNL1       -0.3800
     16 C          60.2064   88.9580    9.5347 C.3     1  UNL1        0.1471
     17 O          59.7609   90.3706    9.2982 O.3     1  UNL1       -0.3814
     18 H          60.9491   90.1666   11.8573 H       1  UNL1        0.2105
     19 H          59.9760   90.9116   10.0741 H       1  UNL1        0.2105
     20 C          59.4817   90.4329    5.6505 C.3     1  UNL1        0.1107
     21 N          60.1542   89.6426    6.7338 N.am    1  UNL1       -0.3026
     22 C          59.3831   88.6041    7.4933 C.2     1  UNL1        0.2240
     23 O          57.9396   88.3558    7.1696 O.2     1  UNL1       -0.2750
     24 H          61.1016   89.8055    6.9462 H       1  UNL1        0.1495
     25 N          64.6417   84.0931   15.2076 N.pl3   1  UNL1       -0.3153
     26 C          63.6977   82.9295   15.2785 C.3     1  UNL1        0.1097
     27 H          65.5085   84.0528   15.6727 H       1  UNL1        0.1483
     28 C          65.2051   89.1698   14.2537 C.1     1  UNL1       -0.0195
     29 C          65.8634   90.4832   14.5562 C.1     1  UNL1       -0.0359
     30 C          66.5217   91.7967   14.8587 C.ar    1  UNL1        0.1421
     31 C          66.1256   93.0270   14.0977 C.ar    1  UNL1        0.1264
     32 N          66.7838   94.3405   14.4001 N.ar    1  UNL1       -0.2385
     33 C          67.8383   94.4236   15.4638 C.ar    1  UNL1        0.1196
     34 C          68.2345   93.1932   16.2248 C.ar    1  UNL1        0.1202
     35 N          67.5762   91.8797   15.9223 N.ar    1  UNL1       -0.2324
@<TRIPOS>BOND
     1    20    21    1
     2    21    22   am
     3    22    23    2
     4    10    22    1
     5    10    11    1
     6    12    11    1
     7    12    13    1
     8    13     1    1
     9     1     2   ar
    10     2     3   ar
    11     3     4   ar
    12     4     5   ar
    13     5    25    1
    14    25    26    1
    15     5     6   ar
    16     6     7   ar
    17     7    28    1
    18    28    29    3
    19    29    30    1
    20    30    31   ar
    21    31    32   ar
    22    32    33   ar
    23    33    34   ar
    24    34    35   ar
    25     7     8   ar
    26     8     9   ar
    27    13    14    1
    28    14    15    1
    29    14    16    1
    30    16    17    1
    31    12    10    1
    32     9     1   ar
    33    16    10    1
    34     9     4   ar
    35    35    30   ar
    36    21    24    1
    37    25    27    1
    38    15    18    1
    39    17    19    1
@<TRIPOS>MOLECULE
*****
 35 39 0 0 0
SMALL
GASTEIGER

@<TRIPOS>ATOM
      1 N          63.6405   89.1408   13.6926 N.ar    1  UNL1       -0.2937
      2 C          63.6420   88.7647   15.1447 C.ar    1  UNL1        0.1798
      3 N          64.3628   89.8407   15.9014 N.ar    1  UNL1       -0.2195
      4 C          64.8068   90.8818   14.9170 C.ar    1  UNL1        0.1483
      5 C          65.5599   92.1678   15.0874 C.ar    1  UNL1        0.1516
      6 N          65.8667   93.0213   13.8926 N.ar    1  UNL1       -0.2031
      7 C          65.4203   92.5887   12.5274 C.ar    1  UNL1        0.2094
      8 N          64.6672   91.3027   12.3571 N.ar    1  UNL1       -0.2003
      9 C          64.3604   90.4493   13.5519 C.ar    1  UNL1        0.1678
     10 C          61.9002   87.7640   10.5081 C.3     1  UNL1        0.0977
     11 C          61.6709   89.1741   10.0512 C.3     1  UNL1        0.0136
     12 C          62.3710   88.9116   11.3515 C.3     1  UNL1        0.0344
     13 C          63.0269   88.3478   12.5770 C.3     1  UNL1        0.1180
     14 C          62.9615   86.8517   12.4911 C.3     1  UNL1        0.1582
     15 O          63.4982   85.8859   13.5056 O.3     1  UNL1       -0.3800
     16 C          62.2651   86.4908   11.2124 C.3     1  UNL1        0.1471
     17 O          61.9832   85.1010   10.7239 O.3     1  UNL1       -0.3814
     18 H          63.3268   84.9781   13.2102 H       1  UNL1        0.2105
     19 H          62.3223   84.4576   11.3657 H       1  UNL1        0.2105
     20 C          59.1473   86.6804    7.8628 C.3     1  UNL1        0.1107
     21 N          59.7957   87.3361    9.0460 N.am    1  UNL1       -0.3026
     22 C          61.2518   87.1083    9.3250 C.2     1  UNL1        0.2240
     23 O          62.0595   86.2249    8.4210 O.2     1  UNL1       -0.2750
     24 H          59.2656   87.9159    9.6393 H       1  UNL1        0.1495
     25 N          66.0063   92.6004   16.4526 N.pl3   1  UNL1       -0.3153
     26 C          67.4673   92.7774   16.7428 C.3     1  UNL1        0.1097
     27 H          65.3404   92.7681   17.1580 H       1  UNL1        0.1483
     28 C          65.7271   93.4421   11.3326 C.1     1  UNL1       -0.0195
     29 C          66.0338   94.2955   10.1378 C.1     1  UNL1       -0.0359
     30 C          66.3406   95.1490    8.9430 C.ar    1  UNL1        0.1421
     31 C          67.7210   95.1493    8.3561 C.ar    1  UNL1        0.1264
     32 N          68.0278   96.0027    7.1613 N.ar    1  UNL1       -0.2385
     33 C          66.9542   96.8559    6.5534 C.ar    1  UNL1        0.1196
     34 C          65.5738   96.8556    7.1403 C.ar    1  UNL1        0.1202
     35 N          65.2670   96.0021    8.3352 N.ar    1  UNL1       -0.2324
@<TRIPOS>BOND
     1    20    21    1
     2    21    22   am
     3    22    23    2
     4    10    22    1
     5    10    11    1
     6    12    11    1
     7    12    13    1
     8    13     1    1
     9     1     2   ar
    10     2     3   ar
    11     3     4   ar
    12     4     5   ar
    13     5    25    1
    14    25    26    1
    15     5     6   ar
    16     6     7   ar
    17     7    28    1
    18    28    29    3
    19    29    30    1
    20    30    31   ar
    21    31    32   ar
    22    32    33   ar
    23    33    34   ar
    24    34    35   ar
    25     7     8   ar
    26     8     9   ar
    27    13    14    1
    28    14    15    1
    29    14    16    1
    30    16    17    1
    31    12    10    1
    32     9     1   ar
    33    16    10    1
    34     9     4   ar
    35    35    30   ar
    36    21    24    1
    37    25    27    1
    38    15    18    1
    39    17    19    1
@<TRIPOS>MOLECULE
*****
 35 39 0 0 0
SMALL
GASTEIGER

@<TRIPOS>ATOM
      1 N          62.9436   84.8608   15.0364 N.ar    1  UNL1       -0.2937
      2 C          62.4570   84.2199   16.3023 C.ar    1  UNL1        0.1798
      3 N          62.4379   85.2683   17.3749 N.ar    1  UNL1       -0.2195
      4 C          62.9127   86.5571   16.7720 C.ar    1  UNL1        0.1483
      5 C          63.1009   87.9274   17.3522 C.ar    1  UNL1        0.1516
      6 N          63.6016   89.0460   16.4872 N.ar    1  UNL1       -0.2031
      7 C          63.9142   88.7941   15.0419 C.ar    1  UNL1        0.2094
      8 N          63.7260   87.4237   14.4617 N.ar    1  UNL1       -0.2003
      9 C          63.2253   86.3052   15.3267 C.ar    1  UNL1        0.1678
     10 C          63.5151   82.4758   12.0280 C.3     1  UNL1        0.0977
     11 C          63.7306   81.3475   12.9925 C.3     1  UNL1        0.0136
     12 C          63.4288   82.7246   13.5047 C.3     1  UNL1        0.0344
     13 C          63.1180   84.1772   13.7127 C.3     1  UNL1        0.1180
     14 C          63.0122   84.8263   12.3645 C.3     1  UNL1        0.1582
     15 O          62.7134   86.2728   12.1034 O.3     1  UNL1       -0.3800
     16 C          63.2576   83.7747   11.3232 C.3     1  UNL1        0.1471
     17 O          63.2473   83.9852    9.8382 O.3     1  UNL1       -0.3814
     18 H          62.7016   86.4330   11.1468 H       1  UNL1        0.2105
     19 H          63.0556   84.9162    9.6449 H       1  UNL1        0.2105
     20 C          63.0809   79.6211    9.3054 C.3     1  UNL1        0.1107
     21 N          62.8805   80.4367   10.5483 N.am    1  UNL1       -0.3026
     22 C          63.7154   81.6602   10.7851 C.2     1  UNL1        0.2240
     23 O          64.7505   82.0681    9.7790 O.2     1  UNL1       -0.2750
     24 H          62.2011   80.1690   11.2086 H       1  UNL1        0.1495
     25 N          62.7883   88.1793   18.7975 N.pl3   1  UNL1       -0.3153
     26 C          62.6966   87.0294   19.7565 C.3     1  UNL1        0.1097
     27 H          62.6433   89.0992   19.1167 H       1  UNL1        0.1483
     28 C          64.4149   89.9125   14.1769 C.1     1  UNL1       -0.0195
     29 C          64.9156   91.0310   13.3119 C.1     1  UNL1       -0.0359
     30 C          65.4164   92.1495   12.4468 C.ar    1  UNL1        0.1421
     31 C          66.1891   93.2812   13.0568 C.ar    1  UNL1        0.1264
     32 N          66.6898   94.3996   12.1918 N.ar    1  UNL1       -0.2385
     33 C          66.4178   94.3864   10.7167 C.ar    1  UNL1        0.1196
     34 C          65.6451   93.2547   10.1066 C.ar    1  UNL1        0.1202
     35 N          65.1444   92.1362   10.9718 N.ar    1  UNL1       -0.2324
@<TRIPOS>BOND
     1    20    21    1
     2    21    22   am
     3    22    23    2
     4    10    22    1
     5    10    11    1
     6    12    11    1
     7    12    13    1
     8    13     1    1
     9     1     2   ar
    10     2     3   ar
    11     3     4   ar
    12     4     5   ar
    13     5    25    1
    14    25    26    1
    15     5     6   ar
    16     6     7   ar
    17     7    28    1
    18    28    29    3
    19    29    30    1
    20    30    31   ar
    21    31    32   ar
    22    32    33   ar
    23    33    34   ar
    24    34    35   ar
    25     7     8   ar
    26     8     9   ar
    27    13    14    1
    28    14    15    1
    29    14    16    1
    30    16    17    1
    31    12    10    1
    32     9     1   ar
    33    16    10    1
    34     9     4   ar
    35    35    30   ar
    36    21    24    1
    37    25    27    1
    38    15    18    1
    39    17    19    1
@<TRIPOS>MOLECULE
*****
 35 39 0 0 0
SMALL
GASTEIGER

@<TRIPOS>ATOM
      1 N          63.4138   87.2911   14.7746 N.ar    1  UNL1       -0.2937
      2 C          62.9036   87.1006   16.1722 C.ar    1  UNL1        0.1798
      3 N          63.0394   88.4068   16.8972 N.ar    1  UNL1       -0.2195
      4 C          63.6336   89.4044   15.9476 C.ar    1  UNL1        0.1483
      5 C          63.9938   90.8517   16.1080 C.ar    1  UNL1        0.1516
      6 N          64.5854   91.6094   14.9565 N.ar    1  UNL1       -0.2031
      7 C          64.8167   90.9199   13.6446 C.ar    1  UNL1        0.2094
      8 N          64.4565   89.4726   13.4843 N.ar    1  UNL1       -0.2003
      9 C          63.8649   88.7149   14.6357 C.ar    1  UNL1        0.1678
     10 C          63.8412   84.1434   12.5442 C.3     1  UNL1        0.0977
     11 C          64.4172   83.4148   13.7220 C.3     1  UNL1        0.0136
     12 C          63.9786   84.8421   13.8644 C.3     1  UNL1        0.0344
     13 C          63.4640   86.2419   13.7037 C.3     1  UNL1        0.1180
     14 C          63.0085   86.4083   12.2843 C.3     1  UNL1        0.1582
     15 O          62.4227   87.6531   11.6865 O.3     1  UNL1       -0.3800
     16 C          63.2416   85.1113   11.5676 C.3     1  UNL1        0.1471
     17 O          62.9298   84.8315   10.1274 O.3     1  UNL1       -0.3814
     18 H          62.2127   87.4955   10.7527 H       1  UNL1        0.2105
     19 H          62.5489   85.6246    9.7190 H       1  UNL1        0.2105
     20 C          63.0821   80.7239   10.6784 C.3     1  UNL1        0.1107
     21 N          62.9695   81.8685   11.6414 N.am    1  UNL1       -0.3026
     22 C          63.9538   82.9988   11.5812 C.2     1  UNL1        0.2240
     23 O          65.0507   82.9845   10.5582 O.2     1  UNL1       -0.2750
     24 H          62.2495   81.8779   12.3129 H       1  UNL1        0.1495
     25 N          63.7624   91.5412   17.4199 N.pl3   1  UNL1       -0.3153
     26 C          64.2417   92.9481   17.6225 C.3     1  UNL1        0.1097
     27 H          63.2960   91.0704   18.1479 H       1  UNL1        0.1483
     28 C          65.4083   91.6775   12.4931 C.1     1  UNL1       -0.0195
     29 C          65.9999   92.4352   11.3417 C.1     1  UNL1       -0.0359
     30 C          66.5915   93.1929   10.1902 C.ar    1  UNL1        0.1421
     31 C          67.6935   92.5813    9.3769 C.ar    1  UNL1        0.1264
     32 N          68.2851   93.3390    8.2255 N.ar    1  UNL1       -0.2385
     33 C          67.7747   94.7084    7.8872 C.ar    1  UNL1        0.1196
     34 C          66.6727   95.3200    8.7005 C.ar    1  UNL1        0.1202
     35 N          66.0810   94.5623    9.8520 N.ar    1  UNL1       -0.2324
@<TRIPOS>BOND
     1    20    21    1
     2    21    22   am
     3    22    23    2
     4    10    22    1
     5    10    11    1
     6    12    11    1
     7    12    13    1
     8    13     1    1
     9     1     2   ar
    10     2     3   ar
    11     3     4   ar
    12     4     5   ar
    13     5    25    1
    14    25    26    1
    15     5     6   ar
    16     6     7   ar
    17     7    28    1
    18    28    29    3
    19    29    30    1
    20    30    31   ar
    21    31    32   ar
    22    32    33   ar
    23    33    34   ar
    24    34    35   ar
    25     7     8   ar
    26     8     9   ar
    27    13    14    1
    28    14    15    1
    29    14    16    1
    30    16    17    1
    31    12    10    1
    32     9     1   ar
    33    16    10    1
    34     9     4   ar
    35    35    30   ar
    36    21    24    1
    37    25    27    1
    38    15    18    1
    39    17    19    1
