@<TRIPOS>MOLECULE
*****
 38 42 0 0 0
SMALL
GASTEIGER

@<TRIPOS>ATOM
      1 C          62.6004   85.4598   11.8921 C.ar    1  UNL1        0.1633
      2 N          63.3853   86.2950   12.8597 N.ar    1  UNL1       -0.2294
      3 C          63.3370   87.7916   12.7696 C.ar    1  UNL1        0.0794
      4 C          62.5040   88.4528   11.7119 C.ar    1  UNL1        0.0264
      5 C          61.7191   87.6174   10.7443 C.ar    1  UNL1        0.1306
      6 N          61.7673   86.1209   10.8344 N.ar    1  UNL1       -0.2122
      7 C          62.4557   89.9493   11.6217 C.3     1  UNL1        0.0519
      8 C          63.2406   90.7846   12.5893 C.3     1  UNL1        0.0973
      9 N          64.0736   90.1234   13.6471 N.pl3   1  UNL1       -0.2874
     10 C          64.1219   88.6269   13.7372 C.3     1  UNL1        0.1381
     11 N          60.8860   88.2786    9.6865 N.pl3   1  UNL1       -0.2900
     12 C          60.4689   89.7105    9.8466 C.3     1  UNL1        0.1242
     13 C          59.6358   90.3717    8.7888 C.3     1  UNL1        0.1636
     14 O          59.2199   89.6010    7.5711 O.3     1  UNL1       -0.3502
     15 C          59.6370   88.1690    7.4110 C.3     1  UNL1        0.1618
     16 C          60.4701   87.5078    8.4687 C.3     1  UNL1        0.1038
     17 C          60.8872   86.0760    8.3087 C.3     1  UNL1        0.0241
     18 C          64.8585   90.9587   14.6147 C.ar    1  UNL1        0.1349
     19 C          64.2121   91.4534   15.8746 C.ar    1  UNL1        0.0550
     20 C          64.9970   92.2888   16.8422 C.ar    1  UNL1        0.1031
     21 N          66.4282   92.6295   16.5498 N.ar    1  UNL1       -0.2291
     22 C          67.0746   92.1348   15.2898 C.ar    1  UNL1        0.1410
     23 C          68.5058   92.4755   14.9974 C.3     1  UNL1        0.0737
     24 N          66.2897   91.2995   14.3223 N.ar    1  UNL1       -0.2160
     25 C          62.7451   80.9702   12.1624 C.ar    1  UNL1        0.0516
     26 C          63.1369   81.6579   10.8882 C.ar    1  UNL1        0.0148
     27 C          63.0886   83.1543   10.7981 C.ar    1  UNL1        0.0043
     28 C          62.6486   83.9632   11.9823 C.ar    1  UNL1        0.0359
     29 C          62.2569   83.2755   13.2565 C.ar    1  UNL1        0.0043
     30 C          62.3051   81.7791   13.3465 C.ar    1  UNL1        0.0148
     31 N          63.0178   77.1563   11.0995 N.am    1  UNL1       -0.2887
     32 C          62.9696   78.6528   11.0095 C.2     1  UNL1        0.3045
     33 O          63.0976   79.3284    9.6764 O.2     1  UNL1       -0.2525
     34 N          62.7933   79.4736   12.2525 N.am    1  UNL1       -0.2683
     35 H          62.9338   76.7128   11.9745 H       1  UNL1        0.1510
     36 H          62.7093   79.0302   13.1275 H       1  UNL1        0.1564
     37 C          64.5369   76.2586    9.1926 C.3     1  UNL1        0.0230
     38 C          63.1941   76.3354    9.8565 C.3     1  UNL1        0.0910
@<TRIPOS>BOND
     1    37    38    1
     2    38    31    1
     3    31    32   am
     4    32    33    2
     5    32    34   am
     6    34    25    1
     7    25    26   ar
     8    26    27   ar
     9    27    28   ar
    10    28     1    1
    11     1     2   ar
    12     2     3   ar
    13     3     4   ar
    14     4     5   ar
    15     5    11    1
    16    11    12    1
    17    12    13    1
    18    13    14    1
    19    14    15    1
    20    15    16    1
    21    16    17    1
    22     5     6   ar
    23     4     7    1
    24     7     8    1
    25     8     9    1
    26     9    18    1
    27    18    19   ar
    28    19    20   ar
    29    20    21   ar
    30    21    22   ar
    31    22    23    1
    32    22    24   ar
    33     9    10    1
    34    28    29   ar
    35    29    30   ar
    36    30    25   ar
    37     6     1   ar
    38    24    18   ar
    39    10     3    1
    40    16    11    1
    41    31    35    1
    42    34    36    1
@<TRIPOS>MOLECULE
*****
 38 42 0 0 0
SMALL
GASTEIGER

@<TRIPOS>ATOM
      1 C          63.0181   89.4190   11.8525 C.ar    1  UNL1        0.1633
      2 N          62.1716   90.1019   10.8195 N.ar    1  UNL1       -0.2294
      3 C          61.4312   89.2887    9.7994 C.ar    1  UNL1        0.0794
      4 C          61.5373   87.7925    9.8125 C.ar    1  UNL1        0.0264
      5 C          62.3837   87.1096   10.8456 C.ar    1  UNL1        0.1306
      6 N          63.1241   87.9228   11.8655 N.ar    1  UNL1       -0.2122
      7 C          60.7969   86.9792    8.7925 C.3     1  UNL1        0.0519
      8 C          59.9505   87.6621    7.7595 C.3     1  UNL1        0.0973
      9 N          59.8444   89.1583    7.7465 N.pl3   1  UNL1       -0.2874
     10 C          60.5848   89.9716    8.7664 C.3     1  UNL1        0.1381
     11 N          62.4898   85.6134   10.8586 N.pl3   1  UNL1       -0.2900
     12 C          62.1008   84.8446   12.0864 C.3     1  UNL1        0.1242
     13 C          62.2069   83.3484   12.0995 C.3     1  UNL1        0.1636
     14 O          62.7019   82.6210   10.8847 O.3     1  UNL1       -0.3502
     15 C          63.0909   83.3898    9.6567 C.3     1  UNL1        0.1618
     16 C          62.9848   84.8860    9.6437 C.3     1  UNL1        0.1038
     17 C          63.3738   85.6547    8.4159 C.3     1  UNL1        0.0241
     18 C          58.9979   89.8412    6.7134 C.ar    1  UNL1        0.1349
     19 C          57.5296   89.5455    6.6320 C.ar    1  UNL1        0.0550
     20 C          56.6832   90.2284    5.5989 C.ar    1  UNL1        0.1031
     21 N          57.3050   91.2070    4.6473 N.ar    1  UNL1       -0.2291
     22 C          58.7734   91.5027    4.7287 C.ar    1  UNL1        0.1410
     23 C          59.3953   92.4813    3.7771 C.3     1  UNL1        0.0737
     24 N          59.6198   90.8198    5.7618 N.ar    1  UNL1       -0.2160
     25 C          65.2393   91.8588   14.9124 C.ar    1  UNL1        0.0516
     26 C          65.2635   92.2645   13.4686 C.ar    1  UNL1        0.0148
     27 C          64.5231   91.4512   12.4486 C.ar    1  UNL1        0.0043
     28 C          63.7585   90.2323   12.8725 C.ar    1  UNL1        0.0359
     29 C          63.7344   89.8267   14.3164 C.ar    1  UNL1        0.0043
     30 C          64.4748   90.6399   15.3364 C.ar    1  UNL1        0.0148
     31 N          68.0234   94.1347   16.5917 N.am    1  UNL1       -0.2887
     32 C          67.2829   93.3215   15.5717 C.2     1  UNL1        0.3045
     33 O          67.8456   93.1575   14.1909 O.2     1  UNL1       -0.2525
     34 N          65.9798   92.6721   15.9325 N.am    1  UNL1       -0.2683
     35 H          67.6540   94.2423   17.4979 H       1  UNL1        0.1510
     36 H          65.6104   92.7797   16.8387 H       1  UNL1        0.1564
     37 C          70.4871   93.9423   15.7900 C.3     1  UNL1        0.0230
     38 C          69.3265   94.7840   16.2309 C.3     1  UNL1        0.0910
@<TRIPOS>BOND
     1    37    38    1
     2    38    31    1
     3    31    32   am
     4    32    33    2
     5    32    34   am
     6    34    25    1
     7    25    26   ar
     8    26    27   ar
     9    27    28   ar
    10    28     1    1
    11     1     2   ar
    12     2     3   ar
    13     3     4   ar
    14     4     5   ar
    15     5    11    1
    16    11    12    1
    17    12    13    1
    18    13    14    1
    19    14    15    1
    20    15    16    1
    21    16    17    1
    22     5     6   ar
    23     4     7    1
    24     7     8    1
    25     8     9    1
    26     9    18    1
    27    18    19   ar
    28    19    20   ar
    29    20    21   ar
    30    21    22   ar
    31    22    23    1
    32    22    24   ar
    33     9    10    1
    34    28    29   ar
    35    29    30   ar
    36    30    25   ar
    37     6     1   ar
    38    24    18   ar
    39    10     3    1
    40    16    11    1
    41    31    35    1
    42    34    36    1
@<TRIPOS>MOLECULE
*****
 38 42 0 0 0
SMALL
GASTEIGER

@<TRIPOS>ATOM
      1 C          63.6489   89.0824   12.5961 C.ar    1  UNL1        0.1633
      2 N          63.8246   87.7033   13.1593 N.ar    1  UNL1       -0.2294
      3 C          63.1038   86.5427   12.5398 C.ar    1  UNL1        0.0794
      4 C          62.2073   86.7614   11.3572 C.ar    1  UNL1        0.0264
      5 C          62.0317   88.1405   10.7941 C.ar    1  UNL1        0.1306
      6 N          62.7524   89.3010   11.4135 N.ar    1  UNL1       -0.2122
      7 C          61.4866   85.6009   10.7378 C.3     1  UNL1        0.0519
      8 C          61.6623   84.2218   11.3010 C.3     1  UNL1        0.0973
      9 N          62.5587   84.0032   12.4836 N.pl3   1  UNL1       -0.2874
     10 C          63.2795   85.1637   13.1030 C.3     1  UNL1        0.1381
     11 N          61.1352   88.3591    9.6115 N.pl3   1  UNL1       -0.2900
     12 C          61.0555   87.3237    8.5291 C.3     1  UNL1        0.1242
     13 C          60.1591   87.5423    7.3465 C.3     1  UNL1        0.1636
     14 O          59.3423   88.7964    7.2462 O.3     1  UNL1       -0.3502
     15 C          59.4219   89.8319    8.3286 C.3     1  UNL1        0.1618
     16 C          60.3184   89.6133    9.5112 C.3     1  UNL1        0.1038
     17 C          60.3980   90.6487   10.5935 C.3     1  UNL1        0.0241
     18 C          62.7344   82.6240   13.0467 C.ar    1  UNL1        0.1349
     19 C          64.1115   82.0924   13.3129 C.ar    1  UNL1        0.0550
     20 C          64.2872   80.7132   13.8760 C.ar    1  UNL1        0.1031
     21 N          63.0857   79.8657   14.1731 N.ar    1  UNL1       -0.2291
     22 C          61.7085   80.3975   13.9069 C.ar    1  UNL1        0.1410
     23 C          60.5070   79.5500   14.2040 C.3     1  UNL1        0.0737
     24 N          61.5329   81.7766   13.3438 N.ar    1  UNL1       -0.2160
     25 C          65.8112   92.5639   14.4544 C.ar    1  UNL1        0.0516
     26 C          65.3279   91.4350   15.3157 C.ar    1  UNL1        0.0148
     27 C          64.6072   90.2745   14.6963 C.ar    1  UNL1        0.0043
     28 C          64.3697   90.2430   13.2155 C.ar    1  UNL1        0.0359
     29 C          64.8530   91.3719   12.3542 C.ar    1  UNL1        0.0043
     30 C          65.5737   92.5324   12.9737 C.ar    1  UNL1        0.0148
     31 N          68.7103   94.7701   16.0286 N.am    1  UNL1       -0.2887
     32 C          67.9895   93.6097   15.4092 C.2     1  UNL1        0.3045
     33 O          68.7262   92.3343   15.1251 O.2     1  UNL1       -0.2525
     34 N          66.5320   93.7245   15.0739 N.am    1  UNL1       -0.2683
     35 H          68.2267   95.6072   16.2151 H       1  UNL1        0.1510
     36 H          66.0484   94.5616   15.2603 H       1  UNL1        0.1564
     37 C          71.2033   94.9657   15.3241 C.3     1  UNL1        0.0230
     38 C          70.1678   94.6553   16.3639 C.3     1  UNL1        0.0910
@<TRIPOS>BOND
     1    37    38    1
     2    38    31    1
     3    31    32   am
     4    32    33    2
     5    32    34   am
     6    34    25    1
     7    25    26   ar
     8    26    27   ar
     9    27    28   ar
    10    28     1    1
    11     1     2   ar
    12     2     3   ar
    13     3     4   ar
    14     4     5   ar
    15     5    11    1
    16    11    12    1
    17    12    13    1
    18    13    14    1
    19    14    15    1
    20    15    16    1
    21    16    17    1
    22     5     6   ar
    23     4     7    1
    24     7     8    1
    25     8     9    1
    26     9    18    1
    27    18    19   ar
    28    19    20   ar
    29    20    21   ar
    30    21    22   ar
    31    22    23    1
    32    22    24   ar
    33     9    10    1
    34    28    29   ar
    35    29    30   ar
    36    30    25   ar
    37     6     1   ar
    38    24    18   ar
    39    10     3    1
    40    16    11    1
    41    31    35    1
    42    34    36    1
@<TRIPOS>MOLECULE
*****
 38 42 0 0 0
SMALL
GASTEIGER

@<TRIPOS>ATOM
      1 C          61.3759   88.0450    9.7819 C.ar    1  UNL1        0.1633
      2 N          61.3459   86.5513    9.9158 N.ar    1  UNL1       -0.2294
      3 C          62.0444   85.8870   11.0651 C.ar    1  UNL1        0.0794
      4 C          62.7729   86.7165   12.0806 C.ar    1  UNL1        0.0264
      5 C          62.8029   88.2103   11.9467 C.ar    1  UNL1        0.1306
      6 N          62.1044   88.8745   10.7974 N.ar    1  UNL1       -0.2122
      7 C          63.4714   86.0523   13.2299 C.3     1  UNL1        0.0519
      8 C          63.4413   84.5586   13.3637 C.3     1  UNL1        0.0973
      9 N          62.7128   83.7291   12.3482 N.pl3   1  UNL1       -0.2874
     10 C          62.0143   84.3933   11.1989 C.3     1  UNL1        0.1381
     11 N          63.5314   89.0398   12.9622 N.pl3   1  UNL1       -0.2900
     12 C          63.8703   88.4576   14.3024 C.3     1  UNL1        0.1242
     13 C          64.5989   89.2871   15.3179 C.3     1  UNL1        0.1636
     14 O          64.9885   90.6988   14.9932 O.3     1  UNL1       -0.3502
     15 C          64.6495   91.2810   13.6529 C.3     1  UNL1        0.1618
     16 C          63.9210   90.4515   12.6374 C.3     1  UNL1        0.1038
     17 C          63.5821   91.0336   11.2972 C.3     1  UNL1        0.0241
     18 C          62.6828   82.2354   12.4821 C.ar    1  UNL1        0.1349
     19 C          62.5185   81.6067   13.8340 C.ar    1  UNL1        0.0550
     20 C          62.4885   80.1129   13.9678 C.ar    1  UNL1        0.1031
     21 N          62.6228   79.2479   12.7497 N.ar    1  UNL1       -0.2291
     22 C          62.7871   79.8767   11.3978 C.ar    1  UNL1        0.1410
     23 C          62.9213   79.0117   10.1797 C.3     1  UNL1        0.0737
     24 N          62.8171   81.3704   11.2640 N.ar    1  UNL1       -0.2160
     25 C          59.2805   90.0378    6.3341 C.ar    1  UNL1        0.0516
     26 C          60.1892   90.8355    7.2217 C.ar    1  UNL1        0.0148
     27 C          60.8876   90.1712    8.3710 C.ar    1  UNL1        0.0043
     28 C          60.6774   88.7092    8.6326 C.ar    1  UNL1        0.0359
     29 C          59.7688   87.9116    7.7449 C.ar    1  UNL1        0.0043
     30 C          59.0703   88.5758    6.5957 C.ar    1  UNL1        0.0148
     31 N          58.6561   92.2402    3.0922 N.am    1  UNL1       -0.2887
     32 C          59.3545   91.5759    4.2415 C.2     1  UNL1        0.3045
     33 O          60.8255   91.7855    4.4476 O.2     1  UNL1       -0.2525
     34 N          58.5820   90.7021    5.1847 N.am    1  UNL1       -0.2683
     35 H          57.6907   92.1026    2.9569 H       1  UNL1        0.1510
     36 H          57.6166   90.5645    5.0495 H       1  UNL1        0.1564
     37 C          59.0984   93.1138    0.6857 C.3     1  UNL1        0.0230
     38 C          59.4286   93.1140    2.1489 C.3     1  UNL1        0.0910
@<TRIPOS>BOND
     1    37    38    1
     2    38    31    1
     3    31    32   am
     4    32    33    2
     5    32    34   am
     6    34    25    1
     7    25    26   ar
     8    26    27   ar
     9    27    28   ar
    10    28     1    1
    11     1     2   ar
    12     2     3   ar
    13     3     4   ar
    14     4     5   ar
    15     5    11    1
    16    11    12    1
    17    12    13    1
    18    13    14    1
    19    14    15    1
    20    15    16    1
    21    16    17    1
    22     5     6   ar
    23     4     7    1
    24     7     8    1
    25     8     9    1
    26     9    18    1
    27    18    19   ar
    28    19    20   ar
    29    20    21   ar
    30    21    22   ar
    31    22    23    1
    32    22    24   ar
    33     9    10    1
    34    28    29   ar
    35    29    30   ar
    36    30    25   ar
    37     6     1   ar
    38    24    18   ar
    39    10     3    1
    40    16    11    1
    41    31    35    1
    42    34    36    1
@<TRIPOS>MOLECULE
*****
 38 42 0 0 0
SMALL
GASTEIGER

@<TRIPOS>ATOM
      1 C          61.6642   88.3075   10.4177 C.ar    1  UNL1        0.1633
      2 N          62.3527   89.3760   11.2139 N.ar    1  UNL1       -0.2294
      3 C          63.1720   89.0061   12.4147 C.ar    1  UNL1        0.0794
      4 C          63.3028   87.5676   12.8193 C.ar    1  UNL1        0.0264
      5 C          62.6142   86.4990   12.0229 C.ar    1  UNL1        0.1306
      6 N          61.7950   86.8690   10.8222 N.ar    1  UNL1       -0.2122
      7 C          64.1221   87.1977   14.0200 C.3     1  UNL1        0.0519
      8 C          64.8106   88.2663   14.8163 C.3     1  UNL1        0.0973
      9 N          64.6798   89.7048   14.4118 N.pl3   1  UNL1       -0.2874
     10 C          63.8605   90.0747   13.2110 C.3     1  UNL1        0.1381
     11 N          62.7450   85.0605   12.4274 N.pl3   1  UNL1       -0.2900
     12 C          62.4674   84.6515   13.8436 C.3     1  UNL1        0.1242
     13 C          62.5982   83.2130   14.2481 C.3     1  UNL1        0.1636
     14 O          63.0066   82.1836   13.2365 O.3     1  UNL1       -0.3502
     15 C          63.2843   82.5926   11.8202 C.3     1  UNL1        0.1618
     16 C          63.1535   84.0311   11.4157 C.3     1  UNL1        0.1038
     17 C          63.4311   84.4402    9.9996 C.3     1  UNL1        0.0241
     18 C          65.3684   90.7734   15.2081 C.ar    1  UNL1        0.1349
     19 C          64.6152   91.5222   16.2673 C.ar    1  UNL1        0.0550
     20 C          65.3037   92.5908   17.0636 C.ar    1  UNL1        0.1031
     21 N          66.7455   92.9105   16.8007 N.ar    1  UNL1       -0.2291
     22 C          67.4987   92.1616   15.7414 C.ar    1  UNL1        0.1410
     23 C          68.9404   92.4813   15.4785 C.3     1  UNL1        0.0737
     24 N          66.8101   91.0931   14.9452 N.ar    1  UNL1       -0.2160
     25 C          59.2062   89.4172    6.8153 C.ar    1  UNL1        0.0516
     26 C          59.7967   90.4911    7.6801 C.ar    1  UNL1        0.0148
     27 C          60.6160   90.1212    8.8809 C.ar    1  UNL1        0.0043
     28 C          60.8448   88.6773    9.2168 C.ar    1  UNL1        0.0359
     29 C          60.2543   87.6034    8.3520 C.ar    1  UNL1        0.0043
     30 C          59.4350   87.9733    7.1513 C.ar    1  UNL1        0.0148
     31 N          57.9600   91.3348    3.5719 N.am    1  UNL1       -0.2887
     32 C          58.7793   90.9649    4.7727 C.2     1  UNL1        0.3045
     33 O          59.9911   91.7729    5.1317 O.2     1  UNL1       -0.2525
     34 N          58.3869   89.7871    5.6145 N.am    1  UNL1       -0.2683
     35 H          57.1647   90.8045    3.3363 H       1  UNL1        0.1510
     36 H          57.5916   89.2568    5.3789 H       1  UNL1        0.1564
     37 C          59.8003   92.7814    2.4446 C.3     1  UNL1        0.0230
     38 C          58.3525   92.5127    2.7301 C.3     1  UNL1        0.0910
@<TRIPOS>BOND
     1    37    38    1
     2    38    31    1
     3    31    32   am
     4    32    33    2
     5    32    34   am
     6    34    25    1
     7    25    26   ar
     8    26    27   ar
     9    27    28   ar
    10    28     1    1
    11     1     2   ar
    12     2     3   ar
    13     3     4   ar
    14     4     5   ar
    15     5    11    1
    16    11    12    1
    17    12    13    1
    18    13    14    1
    19    14    15    1
    20    15    16    1
    21    16    17    1
    22     5     6   ar
    23     4     7    1
    24     7     8    1
    25     8     9    1
    26     9    18    1
    27    18    19   ar
    28    19    20   ar
    29    20    21   ar
    30    21    22   ar
    31    22    23    1
    32    22    24   ar
    33     9    10    1
    34    28    29   ar
    35    29    30   ar
    36    30    25   ar
    37     6     1   ar
    38    24    18   ar
    39    10     3    1
    40    16    11    1
    41    31    35    1
    42    34    36    1
