@<TRIPOS>MOLECULE
*****
 26 28 0 0 0
SMALL
GASTEIGER

@<TRIPOS>ATOM
      1 C          64.3953   90.9708   12.6040 C.ar    1  UNL1       -0.0000
      2 C          63.8693   89.6626   13.1156 C.ar    1  UNL1       -0.0002
      3 C          62.9343   88.8484   12.2713 C.ar    1  UNL1       -0.0017
      4 C          62.5253   89.3424   10.9153 C.ar    1  UNL1        0.0070
      5 C          63.0513   90.6506   10.4037 C.ar    1  UNL1       -0.0017
      6 C          63.9863   91.4648   11.2480 C.ar    1  UNL1       -0.0002
      7 C          67.2002   93.4135   15.1369 C.ar    1  UNL1        0.1387
      8 C          66.6662   92.1102   15.6527 C.ar    1  UNL1        0.0369
      9 C          65.7312   91.2959   14.8084 C.ar    1  UNL1        0.0031
     10 C          65.3302   91.7851   13.4483 C.ar    1  UNL1        0.0002
     11 C          65.8642   93.0884   12.9325 C.ar    1  UNL1        0.0031
     12 C          66.7992   93.9026   13.7768 C.ar    1  UNL1        0.0369
     13 C          69.6081   93.9455   15.9548 C.3     1  UNL1        0.2525
     14 O          68.1351   94.2277   15.9813 O.3     1  UNL1       -0.4714
     15 C          61.5904   88.5282   10.0710 C.3     1  UNL1        0.1410
     16 O          62.7519   88.0359    9.2595 O.3     1  UNL1       -0.3771
     17 H          63.5723   88.4262    9.5993 H       1  UNL1        0.2112
     18 C          60.4288   89.0204   10.8825 C.ar    1  UNL1        0.0825
     19 C          59.8772   90.4153   10.8766 C.ar    1  UNL1        0.1157
     20 N          58.7225   90.4612   11.8329 N.ar    1  UNL1       -0.2228
     21 C          58.5604   89.0947   12.4298 C.ar    1  UNL1        0.1749
     22 N          59.6150   88.2042   11.8425 N.ar    1  UNL1       -0.3361
     23 H          59.7494   87.2514   12.0505 H       1  UNL1        0.1673
     24 C          60.6554   87.7139    9.2267 C.3     1  UNL1        0.0340
     25 C          59.7114   88.3963    8.2816 C.3     1  UNL1        0.0031
     26 C          60.6644   86.2174    9.3275 C.3     1  UNL1        0.0031
@<TRIPOS>BOND
     1    13    14    1
     2    14     7    1
     3     7     8   ar
     4     8     9   ar
     5     9    10   ar
     6    10     1    1
     7     1     2   ar
     8     2     3   ar
     9     3     4   ar
    10     4    15    1
    11    15    16    1
    12    15    18    1
    13    18    19   ar
    14    19    20   ar
    15    20    21   ar
    16    21    22   ar
    17    15    24    1
    18    24    25    1
    19    24    26    1
    20     4     5   ar
    21     5     6   ar
    22    10    11   ar
    23    11    12   ar
    24    12     7   ar
    25     6     1   ar
    26    22    18   ar
    27    16    17    1
    28    22    23    1
@<TRIPOS>MOLECULE
*****
 26 28 0 0 0
SMALL
GASTEIGER

@<TRIPOS>ATOM
      1 C          63.7464   87.2193   13.6519 C.ar    1  UNL1       -0.0000
      2 C          62.9349   86.5725   12.5688 C.ar    1  UNL1       -0.0002
      3 C          62.5864   85.1165   12.6608 C.ar    1  UNL1       -0.0017
      4 C          63.0492   84.3073   13.8359 C.ar    1  UNL1        0.0070
      5 C          63.8606   84.9541   14.9190 C.ar    1  UNL1       -0.0017
      6 C          64.2092   86.4101   14.8270 C.ar    1  UNL1       -0.0002
      7 C          64.7922   91.5874   13.3759 C.ar    1  UNL1        0.1387
      8 C          65.3013   90.7653   14.5226 C.ar    1  UNL1        0.0369
      9 C          64.9527   89.3093   14.6146 C.ar    1  UNL1        0.0031
     10 C          64.0950   88.6754   13.5599 C.ar    1  UNL1        0.0002
     11 C          63.5858   89.4975   12.4133 C.ar    1  UNL1        0.0031
     12 C          63.9344   90.9535   12.3213 C.ar    1  UNL1        0.0369
     13 C          66.4790   93.5258   13.7596 C.3     1  UNL1        0.2525
     14 O          65.1408   93.0435   13.2839 O.3     1  UNL1       -0.4714
     15 C          62.7006   82.8513   13.9279 C.3     1  UNL1        0.1410
     16 O          62.0965   83.0814   15.2815 O.3     1  UNL1       -0.3771
     17 H          62.1788   84.0187   15.5171 H       1  UNL1        0.2112
     18 C          63.3047   82.6211   12.5743 C.ar    1  UNL1        0.0825
     19 C          64.6859   83.0194   12.1460 C.ar    1  UNL1        0.1157
     20 N          64.8685   82.5967   10.7184 N.ar    1  UNL1       -0.2228
     21 C          63.6001   81.9372   10.2644 C.ar    1  UNL1        0.1749
     22 N          62.6336   81.9523   11.4115 N.ar    1  UNL1       -0.3361
     23 H          61.7193   81.5873   11.4026 H       1  UNL1        0.1673
     24 C          62.3520   81.3952   14.0199 C.3     1  UNL1        0.0340
     25 C          60.9162   80.9726   14.1184 C.3     1  UNL1        0.0031
     26 C          63.4392   80.3619   14.0134 C.3     1  UNL1        0.0031
@<TRIPOS>BOND
     1    13    14    1
     2    14     7    1
     3     7     8   ar
     4     8     9   ar
     5     9    10   ar
     6    10     1    1
     7     1     2   ar
     8     2     3   ar
     9     3     4   ar
    10     4    15    1
    11    15    16    1
    12    15    18    1
    13    18    19   ar
    14    19    20   ar
    15    20    21   ar
    16    21    22   ar
    17    15    24    1
    18    24    25    1
    19    24    26    1
    20     4     5   ar
    21     5     6   ar
    22    10    11   ar
    23    11    12   ar
    24    12     7   ar
    25     6     1   ar
    26    22    18   ar
    27    16    17    1
    28    22    23    1
@<TRIPOS>MOLECULE
*****
 26 28 0 0 0
SMALL
GASTEIGER

@<TRIPOS>ATOM
      1 C          63.7916   90.9219   12.0633 C.ar    1  UNL1       -0.0000
      2 C          63.5819   91.3930   10.6548 C.ar    1  UNL1       -0.0002
      3 C          62.5917   90.6952    9.7701 C.ar    1  UNL1       -0.0017
      4 C          61.8113   89.5262   10.2939 C.ar    1  UNL1        0.0070
      5 C          62.0211   89.0551   11.7025 C.ar    1  UNL1       -0.0017
      6 C          63.0113   89.7529   12.5871 C.ar    1  UNL1       -0.0002
      7 C          66.7621   93.0154   14.7173 C.ar    1  UNL1        0.1387
      8 C          66.0153   91.8181   15.2259 C.ar    1  UNL1        0.0369
      9 C          65.0251   91.1202   14.3412 C.ar    1  UNL1        0.0031
     10 C          64.7818   91.6197   12.9480 C.ar    1  UNL1        0.0002
     11 C          65.5286   92.8170   12.4394 C.ar    1  UNL1        0.0031
     12 C          66.5187   93.5148   13.3240 C.ar    1  UNL1        0.0369
     13 C          69.0444   93.0400   15.9584 C.3     1  UNL1        0.2525
     14 O          67.7522   93.7132   15.6020 O.3     1  UNL1       -0.4714
     15 C          60.8212   88.8284    9.4093 C.3     1  UNL1        0.1410
     16 O          60.2541   90.1547    8.9978 O.3     1  UNL1       -0.3771
     17 H          60.7355   90.8661    9.4485 H       1  UNL1        0.2112
     18 C          61.3883   87.5021    9.8207 C.ar    1  UNL1        0.0825
     19 C          62.3647   86.6785    9.0344 C.ar    1  UNL1        0.1157
     20 N          62.6584   85.4339    9.8184 N.ar    1  UNL1       -0.2228
     21 C          61.8636   85.4883   11.0894 C.ar    1  UNL1        0.1749
     22 N          61.0787   86.7665   11.0908 N.ar    1  UNL1       -0.3361
     23 H          60.4675   87.0695   11.8007 H       1  UNL1        0.1673
     24 C          59.8310   88.1306    8.5246 C.3     1  UNL1        0.0340
     25 C          59.2470   86.8144    8.9448 C.3     1  UNL1        0.0031
     26 C          59.4249   88.7489    7.2198 C.3     1  UNL1        0.0031
@<TRIPOS>BOND
     1    13    14    1
     2    14     7    1
     3     7     8   ar
     4     8     9   ar
     5     9    10   ar
     6    10     1    1
     7     1     2   ar
     8     2     3   ar
     9     3     4   ar
    10     4    15    1
    11    15    16    1
    12    15    18    1
    13    18    19   ar
    14    19    20   ar
    15    20    21   ar
    16    21    22   ar
    17    15    24    1
    18    24    25    1
    19    24    26    1
    20     4     5   ar
    21     5     6   ar
    22    10    11   ar
    23    11    12   ar
    24    12     7   ar
    25     6     1   ar
    26    22    18   ar
    27    16    17    1
    28    22    23    1
@<TRIPOS>MOLECULE
*****
 26 28 0 0 0
SMALL
GASTEIGER

@<TRIPOS>ATOM
      1 C          63.0505   89.8145   11.7668 C.ar    1  UNL1       -0.0000
      2 C          63.5857   89.2382   13.0441 C.ar    1  UNL1       -0.0002
      3 C          64.5933   90.0048   13.8486 C.ar    1  UNL1       -0.0017
      4 C          65.0658   91.3476   13.3757 C.ar    1  UNL1        0.0070
      5 C          64.5306   91.9238   12.0984 C.ar    1  UNL1       -0.0017
      6 C          63.5230   91.1572   11.2940 C.ar    1  UNL1       -0.0002
      7 C          60.0277   87.5148    9.3535 C.ar    1  UNL1        0.1387
      8 C          60.1409   89.0019    9.1932 C.ar    1  UNL1        0.0369
      9 C          61.1485   89.7684    9.9976 C.ar    1  UNL1        0.0031
     10 C          62.0429   89.0479   10.9624 C.ar    1  UNL1        0.0002
     11 C          61.9297   87.5608   11.1227 C.ar    1  UNL1        0.0031
     12 C          60.9221   86.7943   10.3183 C.ar    1  UNL1        0.0369
     13 C          59.4453   86.0289    7.3034 C.3     1  UNL1        0.2525
     14 O          59.0201   86.7483    8.5491 O.3     1  UNL1       -0.4714
     15 C          66.0734   92.1141   14.1801 C.3     1  UNL1        0.1410
     16 O          65.2217   91.9495   15.4038 O.3     1  UNL1       -0.3771
     17 H          64.4238   91.4466   15.1772 H       1  UNL1        0.2112
     18 C          66.9251   92.2788   12.9564 C.ar    1  UNL1        0.0825
     19 C          68.1446   91.4744   12.6162 C.ar    1  UNL1        0.1157
     20 N          68.6800   91.9752   11.3075 N.ar    1  UNL1       -0.2228
     21 C          67.7914   93.0892   10.8390 C.ar    1  UNL1        0.1749
     22 N          66.7068   93.2768   11.8580 N.ar    1  UNL1       -0.3361
     23 H          65.9794   93.9387   11.8137 H       1  UNL1        0.1673
     24 C          67.0810   92.8807   14.9846 C.3     1  UNL1        0.0340
     25 C          67.8531   92.1930   16.0712 C.3     1  UNL1        0.0031
     26 C          67.3164   94.3349   14.7024 C.3     1  UNL1        0.0031
@<TRIPOS>BOND
     1    13    14    1
     2    14     7    1
     3     7     8   ar
     4     8     9   ar
     5     9    10   ar
     6    10     1    1
     7     1     2   ar
     8     2     3   ar
     9     3     4   ar
    10     4    15    1
    11    15    16    1
    12    15    18    1
    13    18    19   ar
    14    19    20   ar
    15    20    21   ar
    16    21    22   ar
    17    15    24    1
    18    24    25    1
    19    24    26    1
    20     4     5   ar
    21     5     6   ar
    22    10    11   ar
    23    11    12   ar
    24    12     7   ar
    25     6     1   ar
    26    22    18   ar
    27    16    17    1
    28    22    23    1
@<TRIPOS>MOLECULE
*****
 26 28 0 0 0
SMALL
GASTEIGER

@<TRIPOS>ATOM
      1 C          63.2987   84.9191   12.6944 C.ar    1  UNL1       -0.0000
      2 C          62.7561   85.9467   11.7460 C.ar    1  UNL1       -0.0002
      3 C          62.9370   87.4067   12.0382 C.ar    1  UNL1       -0.0017
      4 C          63.6606   87.8393   13.2789 C.ar    1  UNL1        0.0070
      5 C          64.2032   86.8117   14.2273 C.ar    1  UNL1       -0.0017
      6 C          64.0222   85.3516   13.9351 C.ar    1  UNL1       -0.0002
      7 C          62.7558   80.5388   11.8177 C.ar    1  UNL1        0.1387
      8 C          63.3329   81.4470   10.7727 C.ar    1  UNL1        0.0369
      9 C          63.5139   82.9070   11.0649 C.ar    1  UNL1        0.0031
     10 C          63.1177   83.4590   12.4022 C.ar    1  UNL1        0.0002
     11 C          62.5406   82.5509   13.4472 C.ar    1  UNL1        0.0031
     12 C          62.3596   81.0908   13.1550 C.ar    1  UNL1        0.0369
     13 C          62.7735   78.5627   10.1312 C.3     1  UNL1        0.2525
     14 O          62.5748   79.0787   11.5255 O.3     1  UNL1       -0.4714
     15 C          63.8416   89.2993   13.5711 C.3     1  UNL1        0.1410
     16 O          64.9031   88.9664   14.5772 O.3     1  UNL1       -0.3771
     17 H          65.0216   88.0044   14.6159 H       1  UNL1        0.2112
     18 C          62.7800   89.6323   12.5650 C.ar    1  UNL1        0.0825
     19 C          62.9944   89.8514   11.0967 C.ar    1  UNL1        0.1157
     20 N          61.6645   90.1591   10.4748 N.ar    1  UNL1       -0.2228
     21 C          60.6281   90.1301   11.5588 C.ar    1  UNL1        0.1749
     22 N          61.3175   89.8046   12.8506 N.ar    1  UNL1       -0.3361
     23 H          60.8859   89.7190   13.7313 H       1  UNL1        0.1673
     24 C          64.0225   90.7594   13.8633 C.3     1  UNL1        0.0340
     25 C          63.8164   91.2767   15.2561 C.3     1  UNL1        0.0031
     26 C          64.4096   91.7022   12.7628 C.3     1  UNL1        0.0031
@<TRIPOS>BOND
     1    13    14    1
     2    14     7    1
     3     7     8   ar
     4     8     9   ar
     5     9    10   ar
     6    10     1    1
     7     1     2   ar
     8     2     3   ar
     9     3     4   ar
    10     4    15    1
    11    15    16    1
    12    15    18    1
    13    18    19   ar
    14    19    20   ar
    15    20    21   ar
    16    21    22   ar
    17    15    24    1
    18    24    25    1
    19    24    26    1
    20     4     5   ar
    21     5     6   ar
    22    10    11   ar
    23    11    12   ar
    24    12     7   ar
    25     6     1   ar
    26    22    18   ar
    27    16    17    1
    28    22    23    1
@<TRIPOS>MOLECULE
*****
 26 28 0 0 0
SMALL
GASTEIGER

@<TRIPOS>ATOM
      1 C          61.4015   87.1985   10.1154 C.ar    1  UNL1       -0.0000
      2 C          62.2427   87.9795   11.0809 C.ar    1  UNL1       -0.0002
      3 C          62.9997   87.2675   12.1625 C.ar    1  UNL1       -0.0017
      4 C          62.9154   85.7744   12.2787 C.ar    1  UNL1        0.0070
      5 C          62.0741   84.9934   11.3132 C.ar    1  UNL1       -0.0017
      6 C          61.3171   85.7054   10.2316 C.ar    1  UNL1       -0.0002
      7 C          59.1305   89.3347    6.8704 C.ar    1  UNL1        0.1387
      8 C          59.1403   87.8355    6.9167 C.ar    1  UNL1        0.0369
      9 C          59.8973   87.1234    7.9984 C.ar    1  UNL1        0.0031
     10 C          60.6445   87.9106    9.0337 C.ar    1  UNL1        0.0002
     11 C          60.6347   89.4098    8.9875 C.ar    1  UNL1        0.0031
     12 C          59.8777   90.1219    7.9058 C.ar    1  UNL1        0.0369
     13 C          58.9311   91.3013    5.1844 C.3     1  UNL1        0.2525
     14 O          58.3736   90.0468    5.7888 O.3     1  UNL1       -0.4714
     15 C          63.6724   85.0623   13.3603 C.3     1  UNL1        0.1410
     16 O          63.6397   86.3043   14.2008 O.3     1  UNL1       -0.3771
     17 H          63.1712   87.0062   13.7225 H       1  UNL1        0.2112
     18 C          63.7050   83.8203   12.5199 C.ar    1  UNL1        0.0825
     19 C          64.6716   83.5321   11.4097 C.ar    1  UNL1        0.1157
     20 N          64.3407   82.1821   10.8458 N.ar    1  UNL1       -0.2228
     21 C          63.1695   81.6360   11.6073 C.ar    1  UNL1        0.1749
     22 N          62.7766   82.6485   12.6420 N.ar    1  UNL1       -0.3361
     23 H          62.0389   82.5595   13.2878 H       1  UNL1        0.1673
     24 C          64.4293   84.3503   14.4420 C.3     1  UNL1        0.0340
     25 C          65.8882   84.6324   14.6468 C.3     1  UNL1        0.0031
     26 C          63.7274   83.3561   15.3188 C.3     1  UNL1        0.0031
@<TRIPOS>BOND
     1    13    14    1
     2    14     7    1
     3     7     8   ar
     4     8     9   ar
     5     9    10   ar
     6    10     1    1
     7     1     2   ar
     8     2     3   ar
     9     3     4   ar
    10     4    15    1
    11    15    16    1
    12    15    18    1
    13    18    19   ar
    14    19    20   ar
    15    20    21   ar
    16    21    22   ar
    17    15    24    1
    18    24    25    1
    19    24    26    1
    20     4     5   ar
    21     5     6   ar
    22    10    11   ar
    23    11    12   ar
    24    12     7   ar
    25     6     1   ar
    26    22    18   ar
    27    16    17    1
    28    22    23    1
@<TRIPOS>MOLECULE
*****
 26 28 0 0 0
SMALL
GASTEIGER

@<TRIPOS>ATOM
      1 C          63.2814   90.0901   11.6652 C.ar    1  UNL1       -0.0000
      2 C          63.7337   89.3717   12.9018 C.ar    1  UNL1       -0.0002
      3 C          64.7935   89.9756   13.7747 C.ar    1  UNL1       -0.0017
      4 C          65.4010   91.2980   13.4110 C.ar    1  UNL1        0.0070
      5 C          64.9487   92.0164   12.1744 C.ar    1  UNL1       -0.0017
      6 C          63.8888   91.4124   11.3015 C.ar    1  UNL1       -0.0002
      7 C          60.1019   88.2782    9.0464 C.ar    1  UNL1        0.1387
      8 C          61.3285   87.4875    9.3929 C.ar    1  UNL1        0.0369
      9 C          62.3884   88.0915   10.2659 C.ar    1  UNL1        0.0031
     10 C          62.2215   89.4861   10.7923 C.ar    1  UNL1        0.0002
     11 C          60.9949   90.2768   10.4458 C.ar    1  UNL1        0.0031
     12 C          59.9350   89.6728    9.5728 C.ar    1  UNL1        0.0369
     13 C          59.2640   86.3305    7.5449 C.3     1  UNL1        0.2525
     14 O          59.0420   87.6742    8.1735 O.3     1  UNL1       -0.4714
     15 C          66.4608   91.9020   14.2840 C.3     1  UNL1        0.1410
     16 O          67.4498   91.7883   13.1619 O.3     1  UNL1       -0.3771
     17 H          67.0168   91.3956   12.3878 H       1  UNL1        0.2112
     18 C          65.4719   92.0156   15.4060 C.ar    1  UNL1        0.0825
     19 C          64.1979   91.2353   15.5409 C.ar    1  UNL1        0.1157
     20 N          63.5219   91.6669   16.8085 N.ar    1  UNL1       -0.2228
     21 C          64.3781   92.7140   17.4570 C.ar    1  UNL1        0.1749
     22 N          65.5832   92.9295   16.5903 N.ar    1  UNL1       -0.3361
     23 H          66.3182   93.5600   16.7675 H       1  UNL1        0.1673
     24 C          67.5207   92.5059   15.1569 C.3     1  UNL1        0.0340
     25 C          68.3051   91.6368   16.0946 C.3     1  UNL1        0.0031
     26 C          67.7961   93.9790   15.0921 C.3     1  UNL1        0.0031
@<TRIPOS>BOND
     1    13    14    1
     2    14     7    1
     3     7     8   ar
     4     8     9   ar
     5     9    10   ar
     6    10     1    1
     7     1     2   ar
     8     2     3   ar
     9     3     4   ar
    10     4    15    1
    11    15    16    1
    12    15    18    1
    13    18    19   ar
    14    19    20   ar
    15    20    21   ar
    16    21    22   ar
    17    15    24    1
    18    24    25    1
    19    24    26    1
    20     4     5   ar
    21     5     6   ar
    22    10    11   ar
    23    11    12   ar
    24    12     7   ar
    25     6     1   ar
    26    22    18   ar
    27    16    17    1
    28    22    23    1
@<TRIPOS>MOLECULE
*****
 26 28 0 0 0
SMALL
GASTEIGER

@<TRIPOS>ATOM
      1 C          62.5390   87.9087   10.6810 C.ar    1  UNL1       -0.0000
      2 C          63.0620   87.2544   11.9253 C.ar    1  UNL1       -0.0002
      3 C          63.5649   88.0961   13.0606 C.ar    1  UNL1       -0.0017
      4 C          63.5447   89.5919   12.9515 C.ar    1  UNL1        0.0070
      5 C          63.0217   90.2462   11.7072 C.ar    1  UNL1       -0.0017
      6 C          62.5189   89.4046   10.5719 C.ar    1  UNL1       -0.0002
      7 C          61.0305   85.3839    7.2752 C.ar    1  UNL1        0.1387
      8 C          62.4333   85.2071    7.7758 C.ar    1  UNL1        0.0369
      9 C          62.9362   86.0487    8.9110 C.ar    1  UNL1        0.0031
     10 C          62.0362   87.0671    9.5457 C.ar    1  UNL1        0.0002
     11 C          60.6333   87.2438    9.0451 C.ar    1  UNL1        0.0031
     12 C          60.1304   86.4022    7.9099 C.ar    1  UNL1        0.0369
     13 C          61.4975   83.9290    5.1740 C.3     1  UNL1        0.2525
     14 O          60.5276   84.5422    6.1399 O.3     1  UNL1       -0.4714
     15 C          64.0476   90.4335   14.0868 C.3     1  UNL1        0.1410
     16 O          64.4370   91.5093   13.1167 O.3     1  UNL1       -0.3771
     17 H          64.2144   91.2281   12.2155 H       1  UNL1        0.2112
     18 C          63.6581   89.3577   15.0568 C.ar    1  UNL1        0.0825
     19 C          64.3983   88.0750   15.2948 C.ar    1  UNL1        0.1157
     20 N          63.6578   87.3002   16.3442 N.ar    1  UNL1       -0.2228
     21 C          62.4599   88.1042   16.7549 C.ar    1  UNL1        0.1749
     22 N          62.4601   89.3758   15.9592 N.ar    1  UNL1       -0.3361
     23 H          61.7913   90.0958   16.0188 H       1  UNL1        0.1673
     24 C          64.5504   91.2751   15.2220 C.3     1  UNL1        0.0340
     25 C          63.6695   91.5401   16.4068 C.3     1  UNL1        0.0031
     26 C          65.9343   91.8518   15.1726 C.3     1  UNL1        0.0031
@<TRIPOS>BOND
     1    13    14    1
     2    14     7    1
     3     7     8   ar
     4     8     9   ar
     5     9    10   ar
     6    10     1    1
     7     1     2   ar
     8     2     3   ar
     9     3     4   ar
    10     4    15    1
    11    15    16    1
    12    15    18    1
    13    18    19   ar
    14    19    20   ar
    15    20    21   ar
    16    21    22   ar
    17    15    24    1
    18    24    25    1
    19    24    26    1
    20     4     5   ar
    21     5     6   ar
    22    10    11   ar
    23    11    12   ar
    24    12     7   ar
    25     6     1   ar
    26    22    18   ar
    27    16    17    1
    28    22    23    1
