@<TRIPOS>MOLECULE
*****
 36 39 0 0 0
SMALL
GASTEIGER

@<TRIPOS>ATOM
      1 C          60.5283   86.6671    8.1694 C.3     1  UNL1        0.0796
      2 C          59.7709   87.4502    7.1383 C.3     1  UNL1        0.0178
      3 C          59.3900   88.8754    7.4094 C.3     1  UNL1        0.0030
      4 C          59.7663   89.5176    8.7116 C.3     1  UNL1        0.0213
      5 C          60.5237   88.7346    9.7427 C.3     1  UNL1        0.1160
      6 N          60.9046   87.3093    9.4716 N.3     1  UNL1       -0.1549
      7 C          60.9001   89.3768   11.0450 C.3     1  UNL1        0.1525
      8 C          60.7574   90.0252   12.3901 C.3     1  UNL1        0.0452
      9 C          59.5360   89.6177   11.6206 C.3     1  UNL1        0.0452
     10 O          62.3949   89.3588   10.9217 O.3     1  UNL1       -0.4404
     11 C          63.1530   90.6476   10.8008 C.2     1  UNL1        0.4048
     12 O          62.9669   91.5165    9.5924 O.2     1  UNL1       -0.2262
     13 N          64.0970   91.0673   11.8883 N.am    1  UNL1       -0.2432
     14 C          64.2830   90.1983   13.0967 C.3     1  UNL1        0.1141
     15 C          65.2271   90.6180   14.1841 C.3     1  UNL1        0.0940
     16 N          65.9851   91.9066   14.0632 N.3     1  UNL1       -0.2699
     17 C          65.7992   92.7757   12.8549 C.3     1  UNL1        0.0940
     18 C          64.8551   92.3560   11.7673 C.3     1  UNL1        0.1141
     19 C          66.9292   92.3264   15.1507 C.3     1  UNL1        0.0726
     20 C          68.0881   92.1388   14.2171 C.3     1  UNL1        0.0186
     21 C          65.7703   92.5139   16.0843 C.3     1  UNL1        0.0186
     22 C          67.8733   92.7461   16.2381 C.3     1  UNL1        0.1516
     23 O          68.7934   93.9113   16.0242 O.3     1  UNL1       -0.3806
     24 H          69.4335   93.6943   15.3284 H       1  UNL1        0.2105
     25 S          61.6620   86.5263   10.5028 S.O2    1  UNL1        0.0633
     26 O          62.8486   86.4681    9.5870 O.2     1  UNL1       -0.1528
     27 O          60.7907   86.4066   11.5270 O.2     1  UNL1       -0.1528
     28 C          62.4194   85.7433   11.5339 C.ar    1  UNL1        0.1223
     29 C          63.0792   86.4527   12.6791 C.ar    1  UNL1        0.0208
     30 C          63.8366   85.6697   13.7102 C.ar    1  UNL1        0.0128
     31 C          63.9342   84.1773   13.5962 C.ar    1  UNL1        0.0578
     32 CL         64.6916   83.3942   14.6273 Cl      1  UNL1       -0.0822
     33 C          63.2745   83.4678   12.4511 C.ar    1  UNL1        0.0128
     34 C          62.5170   84.2508   11.4199 C.ar    1  UNL1        0.0208
     35 C          61.6545   84.8902    6.6449 C.3     1  UNL1        0.0015
     36 C          60.9092   85.2419    7.8982 C.3     1  UNL1        0.0177
@<TRIPOS>BOND
     1    35    36    1
     2     1    36    1
     3     1     2    1
     4     2     3    1
     5     3     4    1
     6     4     5    1
     7     5     7    1
     8     7    10    1
     9    10    11    1
    10    11    12    2
    11    11    13   am
    12    13    14    1
    13    14    15    1
    14    15    16    1
    15    16    19    1
    16    19    20    1
    17    19    21    1
    18    19    22    1
    19    22    23    1
    20    16    17    1
    21    17    18    1
    22     7     8    1
    23     8     9    1
    24     5     6    1
    25     6    25    1
    26    25    26    2
    27    25    27    2
    28    25    28    1
    29    28    29   ar
    30    29    30   ar
    31    30    31   ar
    32    31    32    1
    33    31    33   ar
    34    33    34   ar
    35     6     1    1
    36    34    28   ar
    37     9     7    1
    38    18    13    1
    39    23    24    1
@<TRIPOS>MOLECULE
*****
 36 39 0 0 0
SMALL
GASTEIGER

@<TRIPOS>ATOM
      1 C          65.4661   91.7874   12.8848 C.3     1  UNL1        0.0796
      2 C          65.7606   92.6906   11.7240 C.3     1  UNL1        0.0178
      3 C          64.8733   92.6714   10.5148 C.3     1  UNL1        0.0030
      4 C          63.6914   91.7491   10.4663 C.3     1  UNL1        0.0213
      5 C          63.3969   90.8459   11.6271 C.3     1  UNL1        0.1160
      6 N          64.2842   90.8651   12.8364 N.3     1  UNL1       -0.1549
      7 C          62.2150   89.9235   11.5787 C.3     1  UNL1        0.1525
      8 C          60.7913   89.4603   11.4858 C.3     1  UNL1        0.0452
      9 C          61.1082   90.9255   11.4338 C.3     1  UNL1        0.0452
     10 O          62.9113   88.6011   11.7068 O.3     1  UNL1       -0.4404
     11 C          62.5757   87.4825   10.7654 C.2     1  UNL1        0.4048
     12 O          62.2080   87.7843    9.3428 O.2     1  UNL1       -0.2262
     13 N          62.6078   86.0622   11.2465 N.am    1  UNL1       -0.2432
     14 C          62.9755   85.7603   12.6691 C.3     1  UNL1        0.1141
     15 C          63.0076   84.3399   13.1502 C.3     1  UNL1        0.0940
     16 N          62.6720   83.2214   12.2089 N.3     1  UNL1       -0.2699
     17 C          62.3043   83.5232   10.7863 C.3     1  UNL1        0.0940
     18 C          62.2722   84.9436   10.3051 C.3     1  UNL1        0.1141
     19 C          62.7041   81.8010   12.6900 C.3     1  UNL1        0.0726
     20 C          62.3473   82.2611   14.0724 C.3     1  UNL1        0.0186
     21 C          63.0609   81.3409   11.3077 C.3     1  UNL1        0.0186
     22 C          62.7362   80.3806   13.1711 C.3     1  UNL1        0.1516
     23 O          63.4478   80.0365   14.4459 O.3     1  UNL1       -0.3806
     24 H          64.3990   80.1926   14.3375 H       1  UNL1        0.2105
     25 S          63.9897   89.9618   13.9972 S.O2    1  UNL1        0.0633
     26 O          63.2066   91.0602   14.6531 O.2     1  UNL1       -0.1528
     27 O          64.6093   88.8059   13.6771 O.2     1  UNL1       -0.1528
     28 C          63.6951   89.0586   15.1580 C.ar    1  UNL1        0.1223
     29 C          63.1358   89.6279   16.4281 C.ar    1  UNL1        0.0208
     30 C          62.8412   88.7247   17.5889 C.ar    1  UNL1        0.0128
     31 C          63.1059   87.2523   17.4796 C.ar    1  UNL1        0.0578
     32 CL         62.8113   86.3491   18.6404 Cl      1  UNL1       -0.0822
     33 C          63.6651   86.6830   16.2096 C.ar    1  UNL1        0.0128
     34 C          63.9598   87.5862   15.0487 C.ar    1  UNL1        0.0208
     35 C          67.8398   91.9262   13.9318 C.3     1  UNL1        0.0015
     36 C          66.3535   91.8066   14.0940 C.3     1  UNL1        0.0177
@<TRIPOS>BOND
     1    35    36    1
     2     1    36    1
     3     1     2    1
     4     2     3    1
     5     3     4    1
     6     4     5    1
     7     5     7    1
     8     7    10    1
     9    10    11    1
    10    11    12    2
    11    11    13   am
    12    13    14    1
    13    14    15    1
    14    15    16    1
    15    16    19    1
    16    19    20    1
    17    19    21    1
    18    19    22    1
    19    22    23    1
    20    16    17    1
    21    17    18    1
    22     7     8    1
    23     8     9    1
    24     5     6    1
    25     6    25    1
    26    25    26    2
    27    25    27    2
    28    25    28    1
    29    28    29   ar
    30    29    30   ar
    31    30    31   ar
    32    31    32    1
    33    31    33   ar
    34    33    34   ar
    35     6     1    1
    36    34    28   ar
    37     9     7    1
    38    18    13    1
    39    23    24    1
@<TRIPOS>MOLECULE
*****
 36 39 0 0 0
SMALL
GASTEIGER

@<TRIPOS>ATOM
      1 C          60.6237   86.7829    8.3517 C.3     1  UNL1        0.0796
      2 C          59.9076   87.6437    7.3536 C.3     1  UNL1        0.0178
      3 C          59.5777   89.0675    7.6913 C.3     1  UNL1        0.0030
      4 C          59.9638   89.6304    9.0269 C.3     1  UNL1        0.0213
      5 C          60.6799   88.7695   10.0249 C.3     1  UNL1        0.1160
      6 N          61.0099   87.3458    9.6873 N.3     1  UNL1       -0.1549
      7 C          61.0660   89.3324   11.3607 C.3     1  UNL1        0.1525
      8 C          60.9332   89.9202   12.7343 C.3     1  UNL1        0.0452
      9 C          59.7058   89.5996   11.9338 C.3     1  UNL1        0.0452
     10 O          62.5603   89.2607   11.2513 O.3     1  UNL1       -0.4404
     11 C          63.4206   89.9707   12.2543 C.2     1  UNL1        0.4048
     12 O          63.5156   89.4548   13.6596 O.2     1  UNL1       -0.2262
     13 N          64.1858   91.1964   11.8519 N.am    1  UNL1       -0.2432
     14 C          64.0908   91.7122   10.4466 C.3     1  UNL1        0.1141
     15 C          64.8561   92.9380   10.0443 C.3     1  UNL1        0.0940
     16 N          65.7163   93.6479   11.0472 N.3     1  UNL1       -0.2699
     17 C          65.8114   93.1322   12.4525 C.3     1  UNL1        0.0940
     18 C          65.0461   91.9063   12.8549 C.3     1  UNL1        0.1141
     19 C          66.4816   94.8738   10.6448 C.3     1  UNL1        0.0726
     20 C          66.8667   94.2103    9.3559 C.3     1  UNL1        0.0186
     21 C          66.0964   95.5371   11.9338 C.3     1  UNL1        0.0186
     22 C          67.2468   96.0995   10.2426 C.3     1  UNL1        0.1516
     23 O          67.9042   96.1649    8.8959 O.3     1  UNL1       -0.3806
     24 H          68.6159   95.5073    8.8512 H       1  UNL1        0.2105
     25 S          61.7260   86.4849   10.6854 S.O2    1  UNL1        0.0633
     26 O          62.9150   86.4169    9.7735 O.2     1  UNL1       -0.1528
     27 O          60.8436   86.3569   11.6990 O.2     1  UNL1       -0.1528
     28 C          62.4421   85.6241   11.6834 C.ar    1  UNL1        0.1223
     29 C          63.1500   86.2542   12.8462 C.ar    1  UNL1        0.0208
     30 C          63.8662   85.3933   13.8442 C.ar    1  UNL1        0.0128
     31 C          63.8745   83.9024   13.6795 C.ar    1  UNL1        0.0578
     32 CL         64.5906   83.0416   14.6775 Cl      1  UNL1       -0.0822
     33 C          63.1666   83.2723   12.5168 C.ar    1  UNL1        0.0128
     34 C          62.4504   84.1332   11.5187 C.ar    1  UNL1        0.0208
     35 C          61.6630   85.0373    6.7321 C.3     1  UNL1        0.0015
     36 C          60.9537   85.3591    8.0140 C.3     1  UNL1        0.0177
@<TRIPOS>BOND
     1    35    36    1
     2     1    36    1
     3     1     2    1
     4     2     3    1
     5     3     4    1
     6     4     5    1
     7     5     7    1
     8     7    10    1
     9    10    11    1
    10    11    12    2
    11    11    13   am
    12    13    14    1
    13    14    15    1
    14    15    16    1
    15    16    19    1
    16    19    20    1
    17    19    21    1
    18    19    22    1
    19    22    23    1
    20    16    17    1
    21    17    18    1
    22     7     8    1
    23     8     9    1
    24     5     6    1
    25     6    25    1
    26    25    26    2
    27    25    27    2
    28    25    28    1
    29    28    29   ar
    30    29    30   ar
    31    30    31   ar
    32    31    32    1
    33    31    33   ar
    34    33    34   ar
    35     6     1    1
    36    34    28   ar
    37     9     7    1
    38    18    13    1
    39    23    24    1
@<TRIPOS>MOLECULE
*****
 36 39 0 0 0
SMALL
GASTEIGER

@<TRIPOS>ATOM
      1 C          65.1724   91.6675   12.5937 C.3     1  UNL1        0.0796
      2 C          66.2172   92.3608   13.4170 C.3     1  UNL1        0.0178
      3 C          66.3618   92.0352   14.8740 C.3     1  UNL1        0.0030
      4 C          65.4617   91.0164   15.5078 C.3     1  UNL1        0.0213
      5 C          64.4170   90.3231   14.6846 C.3     1  UNL1        0.1160
      6 N          64.2723   90.6487   13.2275 N.3     1  UNL1       -0.1549
      7 C          63.5168   89.3043   15.3184 C.3     1  UNL1        0.1525
      8 C          62.3932   88.7232   16.1246 C.3     1  UNL1        0.0452
      9 C          62.5607   90.2112   16.0350 C.3     1  UNL1        0.0452
     10 O          64.1602   88.0436   14.8218 O.3     1  UNL1       -0.4404
     11 C          63.8989   86.7425   15.5211 C.2     1  UNL1        0.4048
     12 O          63.8634   86.6904   17.0198 O.2     1  UNL1       -0.2262
     13 N          63.6732   85.4935   14.7217 N.am    1  UNL1       -0.2432
     14 C          63.7087   85.5455   13.2231 C.3     1  UNL1        0.1141
     15 C          63.4830   84.2965   12.4237 C.3     1  UNL1        0.0940
     16 N          63.2217   82.9955   13.1229 N.3     1  UNL1       -0.2699
     17 C          63.1862   82.9434   14.6216 C.3     1  UNL1        0.0940
     18 C          63.4119   84.1924   15.4210 C.3     1  UNL1        0.1141
     19 C          62.9959   81.7464   12.3235 C.3     1  UNL1        0.0726
     20 C          63.5085   82.4394   11.0959 C.3     1  UNL1        0.0186
     21 C          62.4834   81.0535   13.5512 C.3     1  UNL1        0.0186
     22 C          62.7702   80.4974   11.5242 C.3     1  UNL1        0.1516
     23 O          63.1218   80.4661   10.0664 O.3     1  UNL1       -0.3806
     24 H          62.5441   81.0759    9.5813 H       1  UNL1        0.2105
     25 S          63.2275   89.9554   12.4042 S.O2    1  UNL1        0.0633
     26 O          62.3818   91.1938   12.4346 O.2     1  UNL1       -0.1528
     27 O          63.7385   88.7229   12.1985 O.2     1  UNL1       -0.1528
     28 C          62.1827   89.2621   11.5810 C.ar    1  UNL1        0.1223
     29 C          62.3649   87.8244   11.1939 C.ar    1  UNL1        0.0208
     30 C          61.3201   87.1311   10.3707 C.ar    1  UNL1        0.0128
     31 C          60.0931   87.8755    9.9345 C.ar    1  UNL1        0.0578
     32 CL         59.0483   87.1823    9.1112 Cl      1  UNL1       -0.0822
     33 C          59.9109   89.3132   10.3215 C.ar    1  UNL1        0.0128
     34 C          60.9557   90.0065   11.1448 C.ar    1  UNL1        0.0208
     35 C          66.0299   92.8838   10.4640 C.3     1  UNL1        0.0015
     36 C          65.0278   91.9931   11.1366 C.3     1  UNL1        0.0177
@<TRIPOS>BOND
     1    35    36    1
     2     1    36    1
     3     1     2    1
     4     2     3    1
     5     3     4    1
     6     4     5    1
     7     5     7    1
     8     7    10    1
     9    10    11    1
    10    11    12    2
    11    11    13   am
    12    13    14    1
    13    14    15    1
    14    15    16    1
    15    16    19    1
    16    19    20    1
    17    19    21    1
    18    19    22    1
    19    22    23    1
    20    16    17    1
    21    17    18    1
    22     7     8    1
    23     8     9    1
    24     5     6    1
    25     6    25    1
    26    25    26    2
    27    25    27    2
    28    25    28    1
    29    28    29   ar
    30    29    30   ar
    31    30    31   ar
    32    31    32    1
    33    31    33   ar
    34    33    34   ar
    35     6     1    1
    36    34    28   ar
    37     9     7    1
    38    18    13    1
    39    23    24    1
@<TRIPOS>MOLECULE
*****
 36 39 0 0 0
SMALL
GASTEIGER

@<TRIPOS>ATOM
      1 C          63.4983   84.3511   10.1691 C.3     1  UNL1        0.0796
      2 C          63.4166   84.2461    8.6751 C.3     1  UNL1        0.0178
      3 C          62.6105   85.2427    7.8961 C.3     1  UNL1        0.0030
      4 C          61.8860   86.3444    8.6111 C.3     1  UNL1        0.0213
      5 C          61.9677   86.4494   10.1052 C.3     1  UNL1        0.1160
      6 N          62.7738   85.4528   10.8842 N.3     1  UNL1       -0.1549
      7 C          61.2431   87.5511   10.8203 C.3     1  UNL1        0.1525
      8 C          60.1250   88.4479   11.2627 C.3     1  UNL1        0.0452
      9 C          59.8580   87.3436   10.2831 C.3     1  UNL1        0.0452
     10 O          62.3766   88.1412   11.6058 O.3     1  UNL1       -0.4404
     11 C          62.9082   89.4983   11.2513 C.2     1  UNL1        0.4048
     12 O          62.5490   90.1246    9.9365 O.2     1  UNL1       -0.2262
     13 N          63.7991   90.2292   12.2116 N.am    1  UNL1       -0.2432
     14 C          64.1583   89.6030   13.5264 C.3     1  UNL1        0.1141
     15 C          65.0492   90.3339   14.4867 C.3     1  UNL1        0.0940
     16 N          65.5808   91.6909   14.1323 N.3     1  UNL1       -0.2699
     17 C          65.2216   92.3172   12.8175 C.3     1  UNL1        0.0940
     18 C          64.3307   91.5863   11.8571 C.3     1  UNL1        0.1141
     19 C          66.4717   92.4218   15.0926 C.3     1  UNL1        0.0726
     20 C          65.3843   92.3903   16.1254 C.3     1  UNL1        0.0186
     21 C          67.5590   92.4533   14.0598 C.3     1  UNL1        0.0186
     22 C          67.3625   93.1527   16.0529 C.3     1  UNL1        0.1516
     23 O          68.7473   93.5513   15.6363 O.3     1  UNL1       -0.3806
     24 H          69.2829   92.7557   15.4915 H       1  UNL1        0.2105
     25 S          62.8555   85.5579   12.3783 S.O2    1  UNL1        0.0633
     26 O          61.6318   84.6998   12.5055 O.2     1  UNL1       -0.1528
     27 O          63.9419   86.3301   12.5926 O.2     1  UNL1       -0.1528
     28 C          62.9371   85.6630   13.8724 C.ar    1  UNL1        0.1223
     29 C          62.1143   84.7518   14.7344 C.ar    1  UNL1        0.0208
     30 C          62.1959   84.8569   16.2285 C.ar    1  UNL1        0.0128
     31 C          63.1002   85.8731   16.8606 C.ar    1  UNL1        0.0578
     32 CL         63.1818   85.9782   18.3546 Cl      1  UNL1       -0.0822
     33 C          63.9229   86.7842   15.9987 C.ar    1  UNL1        0.0128
     34 C          63.8414   86.6792   14.5045 C.ar    1  UNL1        0.0208
     35 C          63.7843   81.9620   11.1492 C.3     1  UNL1        0.0015
     36 C          64.3045   83.3545   10.9481 C.3     1  UNL1        0.0177
@<TRIPOS>BOND
     1    35    36    1
     2     1    36    1
     3     1     2    1
     4     2     3    1
     5     3     4    1
     6     4     5    1
     7     5     7    1
     8     7    10    1
     9    10    11    1
    10    11    12    2
    11    11    13   am
    12    13    14    1
    13    14    15    1
    14    15    16    1
    15    16    19    1
    16    19    20    1
    17    19    21    1
    18    19    22    1
    19    22    23    1
    20    16    17    1
    21    17    18    1
    22     7     8    1
    23     8     9    1
    24     5     6    1
    25     6    25    1
    26    25    26    2
    27    25    27    2
    28    25    28    1
    29    28    29   ar
    30    29    30   ar
    31    30    31   ar
    32    31    32    1
    33    31    33   ar
    34    33    34   ar
    35     6     1    1
    36    34    28   ar
    37     9     7    1
    38    18    13    1
    39    23    24    1
@<TRIPOS>MOLECULE
*****
 36 39 0 0 0
SMALL
GASTEIGER

@<TRIPOS>ATOM
      1 C          65.7190   92.4393   15.3984 C.3     1  UNL1        0.0796
      2 C          65.0535   92.0193   16.6753 C.3     1  UNL1        0.0178
      3 C          63.8912   91.0718   16.6390 C.3     1  UNL1        0.0030
      4 C          63.3944   90.5443   15.3256 C.3     1  UNL1        0.0213
      5 C          64.0599   90.9643   14.0487 C.3     1  UNL1        0.1160
      6 N          65.2222   91.9118   14.0850 N.3     1  UNL1       -0.1549
      7 C          63.5632   90.4367   12.7352 C.3     1  UNL1        0.1525
      8 C          62.9862   90.4190   11.3508 C.3     1  UNL1        0.0452
      9 C          63.1597   91.7215   12.0743 C.3     1  UNL1        0.0452
     10 O          63.7941   88.9689   12.9401 O.3     1  UNL1       -0.4404
     11 C          63.0960   87.9705   12.0649 C.2     1  UNL1        0.4048
     12 O          62.3581   88.4310   10.8428 O.2     1  UNL1       -0.2262
     13 N          63.1358   86.5117   12.4117 N.am    1  UNL1       -0.2432
     14 C          63.8738   86.0512   13.6337 C.3     1  UNL1        0.1141
     15 C          63.9136   84.5924   13.9805 C.3     1  UNL1        0.0940
     16 N          63.2155   83.5941   13.1054 N.3     1  UNL1       -0.2699
     17 C          62.4776   84.0545   11.8833 C.3     1  UNL1        0.0940
     18 C          62.4377   85.5134   11.5364 C.3     1  UNL1        0.1141
     19 C          63.2553   82.1352   13.4522 C.3     1  UNL1        0.0726
     20 C          64.3173   81.9177   12.4155 C.3     1  UNL1        0.0186
     21 C          62.1933   82.3528   14.4888 C.3     1  UNL1        0.0186
     22 C          63.2951   80.6765   13.7990 C.3     1  UNL1        0.1516
     23 O          62.2351   79.7523   13.2771 O.3     1  UNL1       -0.3806
     24 H          61.3792   79.9887   13.6677 H       1  UNL1        0.2105
     25 S          65.8877   92.3317   12.8080 S.O2    1  UNL1        0.0633
     26 O          66.8593   91.1968   12.9411 O.2     1  UNL1       -0.1528
     27 O          65.1842   93.4143   12.4137 O.2     1  UNL1       -0.1528
     28 C          66.5533   92.7517   11.5310 C.ar    1  UNL1        0.1223
     29 C          66.0596   93.9587   10.7897 C.ar    1  UNL1        0.0208
     30 C          66.7251   94.3786    9.5127 C.ar    1  UNL1        0.0128
     31 C          67.8843   93.5915    8.9770 C.ar    1  UNL1        0.0578
     32 CL         68.5498   94.0115    7.7000 Cl      1  UNL1       -0.0822
     33 C          68.3779   92.3846    9.7183 C.ar    1  UNL1        0.0128
     34 C          67.7124   91.9646   10.9953 C.ar    1  UNL1        0.0208
     35 C          68.2446   92.8873   15.8111 C.3     1  UNL1        0.0015
     36 C          66.8813   93.3868   15.4348 C.3     1  UNL1        0.0177
@<TRIPOS>BOND
     1    35    36    1
     2     1    36    1
     3     1     2    1
     4     2     3    1
     5     3     4    1
     6     4     5    1
     7     5     7    1
     8     7    10    1
     9    10    11    1
    10    11    12    2
    11    11    13   am
    12    13    14    1
    13    14    15    1
    14    15    16    1
    15    16    19    1
    16    19    20    1
    17    19    21    1
    18    19    22    1
    19    22    23    1
    20    16    17    1
    21    17    18    1
    22     7     8    1
    23     8     9    1
    24     5     6    1
    25     6    25    1
    26    25    26    2
    27    25    27    2
    28    25    28    1
    29    28    29   ar
    30    29    30   ar
    31    30    31   ar
    32    31    32    1
    33    31    33   ar
    34    33    34   ar
    35     6     1    1
    36    34    28   ar
    37     9     7    1
    38    18    13    1
    39    23    24    1
@<TRIPOS>MOLECULE
*****
 36 39 0 0 0
SMALL
GASTEIGER

@<TRIPOS>ATOM
      1 C          62.3954   93.2176    1.3006 C.3     1  UNL1        0.0796
      2 C          61.7493   92.7299    2.5634 C.3     1  UNL1        0.0178
      3 C          60.2552   92.7454    2.6958 C.3     1  UNL1        0.0030
      4 C          59.4073   93.2486    1.5654 C.3     1  UNL1        0.0213
      5 C          60.0534   93.7363    0.3027 C.3     1  UNL1        0.1160
      6 N          61.5475   93.7208    0.1703 N.3     1  UNL1       -0.1549
      7 C          59.2055   94.2395   -0.8278 C.3     1  UNL1        0.1525
      8 C          58.3850   95.1736   -1.6669 C.3     1  UNL1        0.0452
      9 C          58.9899   95.6553   -0.3816 C.3     1  UNL1        0.0452
     10 O          59.1266   92.9984   -1.6665 O.3     1  UNL1       -0.4404
     11 C          58.9200   93.1065   -3.1484 C.2     1  UNL1        0.4048
     12 O          59.8334   93.9649   -3.9722 O.2     1  UNL1       -0.2262
     13 N          57.8000   92.3564   -3.8062 N.am    1  UNL1       -0.2432
     14 C          56.8866   91.4980   -2.9823 C.3     1  UNL1        0.1141
     15 C          55.7666   90.7477   -3.6402 C.3     1  UNL1        0.0940
     16 N          55.5600   90.8559   -5.1219 N.3     1  UNL1       -0.2699
     17 C          56.4734   91.7142   -5.9459 C.3     1  UNL1        0.0940
     18 C          57.5935   92.4645   -5.2880 C.3     1  UNL1        0.1141
     19 C          54.4400   90.1056   -5.7798 C.3     1  UNL1        0.0726
     20 C          54.6875   90.8548   -7.0555 C.3     1  UNL1        0.0186
     21 C          54.1926   89.3565   -4.5041 C.3     1  UNL1        0.0186
     22 C          53.3201   89.3554   -6.4377 C.3     1  UNL1        0.1516
     23 O          52.0491   89.0935   -5.6853 O.3     1  UNL1       -0.3806
     24 H          52.2302   88.4964   -4.9427 H       1  UNL1        0.2105
     25 S          62.1936   94.2085   -1.0926 S.O2    1  UNL1        0.0633
     26 O          62.2693   95.5925   -0.5193 O.2     1  UNL1       -0.1528
     27 O          62.2681   93.1061   -1.8682 O.2     1  UNL1       -0.1528
     28 C          62.8397   94.6963   -2.3554 C.ar    1  UNL1        0.1223
     29 C          62.4440   96.0212   -2.9370 C.ar    1  UNL1        0.0208
     30 C          63.0901   96.5089   -4.1998 C.ar    1  UNL1        0.0128
     31 C          64.1318   95.6719   -4.8810 C.ar    1  UNL1        0.0578
     32 CL         64.7779   96.1596   -6.1437 Cl      1  UNL1       -0.0822
     33 C          64.5275   94.3470   -4.2994 C.ar    1  UNL1        0.0128
     34 C          63.8814   93.8592   -3.0366 C.ar    1  UNL1        0.0208
     35 C          64.7109   94.2776    1.8152 C.3     1  UNL1        0.0015
     36 C          63.8895   93.2022    1.1682 C.3     1  UNL1        0.0177
@<TRIPOS>BOND
     1    35    36    1
     2     1    36    1
     3     1     2    1
     4     2     3    1
     5     3     4    1
     6     4     5    1
     7     5     7    1
     8     7    10    1
     9    10    11    1
    10    11    12    2
    11    11    13   am
    12    13    14    1
    13    14    15    1
    14    15    16    1
    15    16    19    1
    16    19    20    1
    17    19    21    1
    18    19    22    1
    19    22    23    1
    20    16    17    1
    21    17    18    1
    22     7     8    1
    23     8     9    1
    24     5     6    1
    25     6    25    1
    26    25    26    2
    27    25    27    2
    28    25    28    1
    29    28    29   ar
    30    29    30   ar
    31    30    31   ar
    32    31    32    1
    33    31    33   ar
    34    33    34   ar
    35     6     1    1
    36    34    28   ar
    37     9     7    1
    38    18    13    1
    39    23    24    1
