@<TRIPOS>MOLECULE
*****
 35 40 0 0 0
SMALL
GASTEIGER

@<TRIPOS>ATOM
      1 C          60.2716   95.0988   -2.3770 C.ar    1  UNL1        0.0176
      2 C          58.8523   94.9506   -1.9149 C.ar    1  UNL1        0.0046
      3 C          58.5543   94.2593   -0.6175 C.ar    1  UNL1        0.0370
      4 C          59.6756   93.7162    0.2178 C.ar    1  UNL1        0.1409
      5 C          61.0949   93.8643   -0.2443 C.ar    1  UNL1        0.0688
      6 C          61.3929   94.5557   -1.5418 C.ar    1  UNL1        0.0074
      7 C          62.2162   93.3212    0.5909 C.2     1  UNL1        0.1795
      8 O          63.6355   93.4694    0.1288 O.2     1  UNL1       -0.2911
      9 C          61.9182   92.6299    1.8884 C.3     1  UNL1        0.1092
     10 C          60.4989   92.4817    2.3505 C.3     1  UNL1        0.1436
     11 C          61.6201   91.9386    3.1857 C.3     1  UNL1        0.0620
     12 C          61.3221   91.2473    4.4831 C.3     1  UNL1        0.0985
     13 N          59.9028   91.0991    4.9452 N.am    1  UNL1       -0.2640
     14 C          59.6048   90.4078    6.2427 C.2     1  UNL1        0.3039
     15 O          58.1854   90.2596    6.7048 O.2     1  UNL1       -0.2526
     16 N          60.7260   89.8646    7.0779 N.am    1  UNL1       -0.2901
     17 C          58.7815   91.6422    4.1100 C.3     1  UNL1        0.0985
     18 C          59.0795   92.3335    2.8126 C.3     1  UNL1        0.0620
     19 O          59.3775   93.0249    1.5152 O.3     1  UNL1       -0.4819
     20 H          61.6576   89.9619    6.7746 H       1  UNL1        0.1509
     21 C          58.0795   95.9842   -4.6265 C.3     1  UNL1        0.1537
     22 N          59.5621   96.1971   -4.7084 N.ar    1  UNL1       -0.2488
     23 N          60.2973   96.8543   -5.8386 N.ar    1  UNL1       -0.1676
     24 C          61.7593   96.8535   -5.5032 C.ar    1  UNL1        0.1217
     25 C          61.9277   96.1958   -4.1657 C.ar    1  UNL1        0.0412
     26 C          60.5697   95.7901   -3.6744 C.ar    1  UNL1        0.0795
     27 C          60.4280   89.1733    8.3754 C.3     1  UNL1        0.0774
     28 C          59.6344   89.0790    9.6447 C.3     1  UNL1        0.0259
     29 C          60.7055   88.0702    9.3533 C.3     1  UNL1        0.0420
     30 C          61.4841   86.8509    9.7495 C.ar    1  UNL1       -0.0208
     31 C          62.2932   86.1120    8.7251 C.ar    1  UNL1       -0.0042
     32 C          63.0718   84.8927    9.1214 C.ar    1  UNL1       -0.0003
     33 C          63.0413   84.4122   10.5420 C.ar    1  UNL1       -0.0000
     34 C          62.2322   85.1511   11.5664 C.ar    1  UNL1       -0.0003
     35 C          61.4535   86.3705   11.1701 C.ar    1  UNL1       -0.0042
@<TRIPOS>BOND
     1    21    22    1
     2    22    23   ar
     3    23    24   ar
     4    24    25   ar
     5    25    26   ar
     6    26     1    1
     7     1     2   ar
     8     2     3   ar
     9     3     4   ar
    10     4     5   ar
    11     5     6   ar
    12     5     7    1
    13     7     8    2
    14     7     9    1
    15     9    10    1
    16    10    11    1
    17    11    12    1
    18    12    13    1
    19    13    14   am
    20    14    15    2
    21    14    16   am
    22    27    16    1
    23    27    28    1
    24    28    29    1
    25    29    30    1
    26    30    31   ar
    27    31    32   ar
    28    32    33   ar
    29    33    34   ar
    30    34    35   ar
    31    13    17    1
    32    17    18    1
    33    10    19    1
    34    26    22   ar
    35     6     1   ar
    36    18    10    1
    37    19     4    1
    38    29    27    1
    39    35    30   ar
    40    16    20    1
@<TRIPOS>MOLECULE
*****
 35 40 0 0 0
SMALL
GASTEIGER

@<TRIPOS>ATOM
      1 C          63.1788   95.2763   -2.7399 C.ar    1  UNL1        0.0176
      2 C          61.6985   95.4274   -2.5506 C.ar    1  UNL1        0.0046
      3 C          61.0269   94.8053   -1.3624 C.ar    1  UNL1        0.0370
      4 C          61.8357   94.0319   -0.3634 C.ar    1  UNL1        0.1409
      5 C          63.3160   93.8807   -0.5527 C.ar    1  UNL1        0.0688
      6 C          63.9876   94.5030   -1.7410 C.ar    1  UNL1        0.0074
      7 C          64.1248   93.1074    0.4462 C.2     1  UNL1        0.1795
      8 O          65.6051   92.9563    0.2568 O.2     1  UNL1       -0.2911
      9 C          63.4532   92.4852    1.6345 C.3     1  UNL1        0.1092
     10 C          61.9729   92.6363    1.8238 C.3     1  UNL1        0.1436
     11 C          62.7817   91.8630    2.8227 C.3     1  UNL1        0.0620
     12 C          62.1101   91.2408    4.0109 C.3     1  UNL1        0.0985
     13 N          60.6298   91.3920    4.2002 N.am    1  UNL1       -0.2640
     14 C          59.9583   90.7698    5.3885 C.2     1  UNL1        0.3039
     15 O          58.4780   90.9209    5.5778 O.2     1  UNL1       -0.2526
     16 N          60.7671   89.9964    6.3874 N.am    1  UNL1       -0.2901
     17 C          59.8211   92.1653    3.2013 C.3     1  UNL1        0.0985
     18 C          60.4926   92.7875    2.0131 C.3     1  UNL1        0.0620
     19 O          61.1642   93.4097    0.8248 O.3     1  UNL1       -0.4819
     20 H          61.7386   89.8972    6.2631 H       1  UNL1        0.1509
     21 C          61.7392   96.0716   -5.5585 C.3     1  UNL1        0.1537
     22 N          63.1886   96.2640   -5.2236 N.ar    1  UNL1       -0.2488
     23 N          64.2308   96.8558   -6.1256 N.ar    1  UNL1       -0.1676
     24 C          65.5367   96.8560   -5.3875 C.ar    1  UNL1        0.1217
     25 C          65.3015   96.2643   -4.0294 C.ar    1  UNL1        0.0412
     26 C          63.8503   95.8985   -3.9281 C.ar    1  UNL1        0.0795
     27 C          60.0955   89.3742    7.5756 C.3     1  UNL1        0.0774
     28 C          58.8511   89.0902    8.3635 C.3     1  UNL1        0.0259
     29 C          60.1768   88.5806    8.8459 C.3     1  UNL1        0.0420
     30 C          60.9892   87.8282    9.8578 C.ar    1  UNL1       -0.0208
     31 C          61.9035   88.5701   10.7872 C.ar    1  UNL1       -0.0042
     32 C          62.7158   87.8177   11.7991 C.ar    1  UNL1       -0.0003
     33 C          62.6139   86.3234   11.8816 C.ar    1  UNL1       -0.0000
     34 C          61.6996   85.5816   10.9522 C.ar    1  UNL1       -0.0003
     35 C          60.8872   86.3340    9.9403 C.ar    1  UNL1       -0.0042
@<TRIPOS>BOND
     1    21    22    1
     2    22    23   ar
     3    23    24   ar
     4    24    25   ar
     5    25    26   ar
     6    26     1    1
     7     1     2   ar
     8     2     3   ar
     9     3     4   ar
    10     4     5   ar
    11     5     6   ar
    12     5     7    1
    13     7     8    2
    14     7     9    1
    15     9    10    1
    16    10    11    1
    17    11    12    1
    18    12    13    1
    19    13    14   am
    20    14    15    2
    21    14    16   am
    22    27    16    1
    23    27    28    1
    24    28    29    1
    25    29    30    1
    26    30    31   ar
    27    31    32   ar
    28    32    33   ar
    29    33    34   ar
    30    34    35   ar
    31    13    17    1
    32    17    18    1
    33    10    19    1
    34    26    22   ar
    35     6     1   ar
    36    18    10    1
    37    19     4    1
    38    29    27    1
    39    35    30   ar
    40    16    20    1
@<TRIPOS>MOLECULE
*****
 35 40 0 0 0
SMALL
GASTEIGER

@<TRIPOS>ATOM
      1 C          61.0376   95.0813   -3.7939 C.ar    1  UNL1        0.0176
      2 C          59.6659   95.3459   -3.2476 C.ar    1  UNL1        0.0046
      3 C          59.2837   94.8231   -1.8946 C.ar    1  UNL1        0.0370
      4 C          60.2733   94.0356   -1.0879 C.ar    1  UNL1        0.1409
      5 C          61.6450   93.7710   -1.6341 C.ar    1  UNL1        0.0688
      6 C          62.0272   94.2939   -2.9872 C.ar    1  UNL1        0.0074
      7 C          62.6345   92.9837   -0.8274 C.2     1  UNL1        0.1795
      8 O          64.0062   92.7191   -1.3737 O.2     1  UNL1       -0.2911
      9 C          62.2524   92.4608    0.5256 C.3     1  UNL1        0.1092
     10 C          60.8807   92.7254    1.0719 C.3     1  UNL1        0.1436
     11 C          61.8702   91.9381    1.8786 C.3     1  UNL1        0.0620
     12 C          61.4880   91.4153    3.2316 C.3     1  UNL1        0.0985
     13 N          60.1163   91.6799    3.7779 N.am    1  UNL1       -0.2640
     14 C          59.7342   91.1570    5.1309 C.2     1  UNL1        0.3039
     15 O          58.3625   91.4217    5.6772 O.2     1  UNL1       -0.2526
     16 N          60.7237   90.3697    5.9376 N.am    1  UNL1       -0.2901
     17 C          59.1268   92.4673    2.9712 C.3     1  UNL1        0.0985
     18 C          59.5090   92.9900    1.6182 C.3     1  UNL1        0.0620
     19 O          59.8911   93.5129    0.2651 O.3     1  UNL1       -0.4819
     20 H          61.6240   90.1960    5.5791 H       1  UNL1        0.1509
     21 C          59.6899   94.2135   -6.6364 C.3     1  UNL1        0.1537
     22 N          60.8003   95.2052   -6.4534 N.ar    1  UNL1       -0.2488
     23 N          61.4862   95.9721   -7.5449 N.ar    1  UNL1       -0.1676
     24 C          62.5297   96.8450   -6.9130 C.ar    1  UNL1        0.1217
     25 C          62.4886   96.6175   -5.4309 C.ar    1  UNL1        0.0412
     26 C          61.4198   95.6040   -5.1469 C.ar    1  UNL1        0.0795
     27 C          60.3415   89.8468    7.2907 C.3     1  UNL1        0.0774
     28 C          59.3650   89.1368    8.1806 C.3     1  UNL1        0.0259
     29 C          60.6562   89.6514    8.7442 C.3     1  UNL1        0.0420
     30 C          61.5835   89.8357    9.9088 C.ar    1  UNL1       -0.0208
     31 C          61.5689   88.8529   11.0419 C.ar    1  UNL1       -0.0042
     32 C          62.4961   89.0372   12.2065 C.ar    1  UNL1       -0.0003
     33 C          63.4380   90.2043   12.2379 C.ar    1  UNL1       -0.0000
     34 C          63.4525   91.1871   11.1048 C.ar    1  UNL1       -0.0003
     35 C          62.5252   91.0027    9.9402 C.ar    1  UNL1       -0.0042
@<TRIPOS>BOND
     1    21    22    1
     2    22    23   ar
     3    23    24   ar
     4    24    25   ar
     5    25    26   ar
     6    26     1    1
     7     1     2   ar
     8     2     3   ar
     9     3     4   ar
    10     4     5   ar
    11     5     6   ar
    12     5     7    1
    13     7     8    2
    14     7     9    1
    15     9    10    1
    16    10    11    1
    17    11    12    1
    18    12    13    1
    19    13    14   am
    20    14    15    2
    21    14    16   am
    22    27    16    1
    23    27    28    1
    24    28    29    1
    25    29    30    1
    26    30    31   ar
    27    31    32   ar
    28    32    33   ar
    29    33    34   ar
    30    34    35   ar
    31    13    17    1
    32    17    18    1
    33    10    19    1
    34    26    22   ar
    35     6     1   ar
    36    18    10    1
    37    19     4    1
    38    29    27    1
    39    35    30   ar
    40    16    20    1
