@<TRIPOS>MOLECULE
*****
 40 43 0 0 0
SMALL
GASTEIGER

@<TRIPOS>ATOM
      1 C          64.0523   86.6190   15.6397 C.ar    1  UNL1        0.0611
      2 C          63.2325   86.2473   16.8396 C.ar    1  UNL1        0.1037
      3 N          62.7176   87.5126   17.4592 N.ar    1  UNL1       -0.2269
      4 C          63.2192   88.6663   16.6423 C.ar    1  UNL1        0.1407
      5 N          63.0314   90.1484   16.7771 N.ar    1  UNL1       -0.3374
      6 C          63.6685   91.0781   15.7874 C.ar    1  UNL1        0.0735
      7 C          64.4934   90.5259   14.6629 C.ar    1  UNL1        0.0186
      8 C          64.6812   89.0438   14.5281 C.ar    1  UNL1        0.0047
      9 C          64.0441   88.1141   15.5178 C.ar    1  UNL1        0.0386
     10 H          62.4900   90.5108   17.5152 H       1  UNL1        0.1674
     11 C          65.1306   91.4558   13.6732 C.ar    1  UNL1        0.0206
     12 C          64.5205   91.6382   12.3151 C.ar    1  UNL1        0.0033
     13 C          65.1576   92.5680   11.3254 C.ar    1  UNL1        0.0238
     14 C          66.4048   93.3155   11.6938 C.ar    1  UNL1        0.1345
     15 N          67.0149   93.1330   13.0520 N.ar    1  UNL1       -0.2393
     16 C          66.3778   92.2032   14.0416 C.ar    1  UNL1        0.0990
     17 C          67.0419   94.2453   10.7042 C.2     1  UNL1        0.2636
     18 O          68.2341   93.7958    9.9125 O.2     1  UNL1       -0.2685
     19 N          66.4869   95.6247   10.5062 N.am    1  UNL1       -0.2996
     20 H          65.7045   95.9197   11.0258 H       1  UNL1        0.1498
     21 C          67.1240   96.5546    9.5165 C.3     1  UNL1        0.0898
     22 C          66.8386   96.4013    8.0520 C.3     1  UNL1        0.0230
     23 C          64.7567   85.6635   14.7227 C.2     1  UNL1        0.2015
     24 O          66.2514   85.5462   14.7661 O.2     1  UNL1       -0.2864
     25 C          62.5544   84.6180   11.5911 C.ar    1  UNL1        0.0920
     26 C          62.3853   83.1487   11.8413 C.ar    1  UNL1        0.0204
     27 C          63.0067   82.5177   13.0519 C.ar    1  UNL1        0.0312
     28 C          63.7971   83.3559   14.0124 C.ar    1  UNL1        0.1454
     29 F          64.4185   82.7249   15.2231 F       1  UNL1       -0.2040
     30 C          63.9662   84.8252   13.7622 C.ar    1  UNL1        0.0951
     31 C          63.3448   85.4562   12.5515 C.ar    1  UNL1        0.1598
     32 F          63.5139   86.9255   12.3014 F       1  UNL1       -0.2026
     33 N          61.9330   85.2490   10.3804 N.pl3   1  UNL1       -0.2166
     34 H          61.7299   84.7002    9.5887 H       1  UNL1        0.1734
     35 S          61.6210   86.7162   10.3760 S.O2    1  UNL1        0.0540
     36 O          60.7571   86.5361   11.5889 O.2     1  UNL1       -0.1545
     37 O          62.4850   86.8962    9.1631 O.2     1  UNL1       -0.1545
     38 C          61.3091   88.1833   10.3715 C.3     1  UNL1        0.1724
     39 C          62.1286   90.6297   10.0644 C.3     1  UNL1        0.0019
     40 C          62.4237   89.1870   10.3501 C.3     1  UNL1        0.0273
@<TRIPOS>BOND
     1    39    40    1
     2    40    38    1
     3    38    35    1
     4    35    36    2
     5    35    37    2
     6    35    33    1
     7    33    25    1
     8    25    26   ar
     9    26    27   ar
    10    27    28   ar
    11    28    29    1
    12    28    30   ar
    13    30    23    1
    14    23    24    2
    15    23     1    1
    16     1     2   ar
    17     2     3   ar
    18     3     4   ar
    19     4     5   ar
    20     5     6   ar
    21     6     7   ar
    22     7    11    1
    23    11    12   ar
    24    12    13   ar
    25    13    14   ar
    26    14    17    1
    27    17    18    2
    28    17    19   am
    29    19    21    1
    30    21    22    1
    31    14    15   ar
    32    15    16   ar
    33     7     8   ar
    34     8     9   ar
    35    30    31   ar
    36    31    32    1
    37    31    25   ar
    38     9     1   ar
    39     9     4    1
    40    16    11   ar
    41    33    34    1
    42     5    10    1
    43    19    20    1
@<TRIPOS>MOLECULE
*****
 40 43 0 0 0
SMALL
GASTEIGER

@<TRIPOS>ATOM
      1 C          63.9944   86.6066   15.5403 C.ar    1  UNL1        0.0611
      2 C          63.2244   86.2185   16.7677 C.ar    1  UNL1        0.1037
      3 N          62.7825   87.4766   17.4547 N.ar    1  UNL1       -0.2269
      4 C          63.2793   88.6422   16.6519 C.ar    1  UNL1        0.1407
      5 N          63.1464   90.1237   16.8454 N.ar    1  UNL1       -0.3374
      6 C          63.7626   91.0675   15.8557 C.ar    1  UNL1        0.0735
      7 C          64.5116   90.5298   14.6725 C.ar    1  UNL1        0.0186
      8 C          64.6445   89.0483   14.4790 C.ar    1  UNL1        0.0047
      9 C          64.0283   88.1045   15.4687 C.ar    1  UNL1        0.0386
     10 H          62.6548   90.4766   17.6219 H       1  UNL1        0.1674
     11 C          65.1278   91.4737   13.6828 C.ar    1  UNL1        0.0206
     12 C          64.5816   91.5602   12.2885 C.ar    1  UNL1        0.0033
     13 C          65.1978   92.5041   11.2988 C.ar    1  UNL1        0.0238
     14 C          66.3601   93.3615   11.7035 C.ar    1  UNL1        0.1345
     15 N          66.9063   93.2751   13.0979 N.ar    1  UNL1       -0.2393
     16 C          66.2901   92.3312   14.0875 C.ar    1  UNL1        0.0990
     17 C          66.9763   94.3054   10.7139 C.2     1  UNL1        0.2636
     18 O          68.1723   93.8791    9.9152 O.2     1  UNL1       -0.2685
     19 N          66.3965   95.6755   10.5230 N.am    1  UNL1       -0.2996
     20 H          65.6115   95.9553   11.0472 H       1  UNL1        0.1498
     21 C          67.0127   96.6195    9.5333 C.3     1  UNL1        0.0898
     22 C          66.8375   96.3835    8.0624 C.3     1  UNL1        0.0230
     23 C          64.6205   85.6626   14.5571 C.2     1  UNL1        0.2015
     24 O          66.0554   85.2560   14.7170 O.2     1  UNL1       -0.2864
     25 C          62.4264   85.5265   11.2529 C.ar    1  UNL1        0.0920
     26 C          62.1939   84.0500   11.1276 C.ar    1  UNL1        0.0204
     27 C          62.7702   83.1109   12.1455 C.ar    1  UNL1        0.0312
     28 C          63.5791   83.6484   13.2886 C.ar    1  UNL1        0.1454
     29 F          64.1554   82.7094   14.3065 F       1  UNL1       -0.2040
     30 C          63.8116   85.1250   13.4139 C.ar    1  UNL1        0.0951
     31 C          63.2353   86.0640   12.3960 C.ar    1  UNL1        0.1598
     32 F          63.4679   87.5406   12.5213 F       1  UNL1       -0.2026
     33 N          61.8501   86.4655   10.2350 N.pl3   1  UNL1       -0.2166
     34 H          61.6904   87.4082   10.4696 H       1  UNL1        0.1734
     35 S          61.5172   85.9682    8.8595 S.O2    1  UNL1        0.0540
     36 O          60.0986   86.4213    9.0391 O.2     1  UNL1       -0.1545
     37 O          62.9358   85.5152    8.6799 O.2     1  UNL1       -0.1545
     38 C          61.1844   85.4709    7.4841 C.3     1  UNL1        0.1724
     39 C          61.8926   84.1801    5.3434 C.3     1  UNL1        0.0019
     40 C          62.2572   84.8736    6.6225 C.3     1  UNL1        0.0273
@<TRIPOS>BOND
     1    39    40    1
     2    40    38    1
     3    38    35    1
     4    35    36    2
     5    35    37    2
     6    35    33    1
     7    33    25    1
     8    25    26   ar
     9    26    27   ar
    10    27    28   ar
    11    28    29    1
    12    28    30   ar
    13    30    23    1
    14    23    24    2
    15    23     1    1
    16     1     2   ar
    17     2     3   ar
    18     3     4   ar
    19     4     5   ar
    20     5     6   ar
    21     6     7   ar
    22     7    11    1
    23    11    12   ar
    24    12    13   ar
    25    13    14   ar
    26    14    17    1
    27    17    18    2
    28    17    19   am
    29    19    21    1
    30    21    22    1
    31    14    15   ar
    32    15    16   ar
    33     7     8   ar
    34     8     9   ar
    35    30    31   ar
    36    31    32    1
    37    31    25   ar
    38     9     1   ar
    39     9     4    1
    40    16    11   ar
    41    33    34    1
    42     5    10    1
    43    19    20    1
@<TRIPOS>MOLECULE
*****
 40 43 0 0 0
SMALL
GASTEIGER

@<TRIPOS>ATOM
      1 C          61.6275   86.3032    9.2740 C.ar    1  UNL1        0.0611
      2 C          60.3265   86.2230    8.5317 C.ar    1  UNL1        0.1037
      3 N          59.5376   87.4598    8.8442 N.ar    1  UNL1       -0.2269
      4 C          60.3509   88.3045    9.7796 C.ar    1  UNL1        0.1407
      5 N          60.0822   89.6321   10.4239 N.ar    1  UNL1       -0.3374
      6 C          61.1052   90.2449   11.3338 C.ar    1  UNL1        0.0735
      7 C          62.3968   89.5301   11.5994 C.ar    1  UNL1        0.0186
      8 C          62.6655   88.2024   10.9552 C.ar    1  UNL1        0.0047
      9 C          61.6425   87.5896   10.0453 C.ar    1  UNL1        0.0386
     10 H          59.2344   90.1013   10.2495 H       1  UNL1        0.1674
     11 C          63.4198   90.1429   12.5094 C.ar    1  UNL1        0.0206
     12 C          63.9021   89.3877   13.7123 C.ar    1  UNL1        0.0033
     13 C          64.9251   90.0005   14.6222 C.ar    1  UNL1        0.0238
     14 C          65.4658   91.3687   14.3292 C.ar    1  UNL1        0.1345
     15 N          64.9834   92.1240   13.1263 N.ar    1  UNL1       -0.2393
     16 C          63.9605   91.5111   12.2164 C.ar    1  UNL1        0.0990
     17 C          66.4887   91.9816   15.2391 C.2     1  UNL1        0.2636
     18 O          66.0538   92.6864   16.4897 O.2     1  UNL1       -0.2685
     19 N          67.9466   91.8896   14.8983 N.am    1  UNL1       -0.2996
     20 H          68.2320   91.4270   14.0775 H       1  UNL1        0.1498
     21 C          68.9696   92.5025   15.8082 C.3     1  UNL1        0.0898
     22 C          69.1375   93.9924   15.8523 C.3     1  UNL1        0.0230
     23 C          62.7213   85.2771    9.2495 C.2     1  UNL1        0.2015
     24 O          63.4806   85.0204    7.9816 O.2     1  UNL1       -0.2864
     25 C          62.7173   84.0784   13.0328 C.ar    1  UNL1        0.0920
     26 C          63.7251   82.9687   12.9796 C.ar    1  UNL1        0.0204
     27 C          64.3982   82.6284   11.6831 C.ar    1  UNL1        0.0312
     28 C          64.0637   83.3978   10.4397 C.ar    1  UNL1        0.1454
     29 F          64.7369   83.0575    9.1432 F       1  UNL1       -0.2040
     30 C          63.0559   84.5076   10.4929 C.ar    1  UNL1        0.0951
     31 C          62.3828   84.8479   11.7894 C.ar    1  UNL1        0.1598
     32 F          61.3750   85.9577   11.8426 F       1  UNL1       -0.2026
     33 N          62.0442   84.4187   14.3294 N.pl3   1  UNL1       -0.2166
     34 H          61.0905   84.2109   14.4583 H       1  UNL1        0.1734
     35 S          62.8240   85.0757   15.4295 S.O2    1  UNL1        0.0540
     36 O          63.4328   86.0189   14.4346 O.2     1  UNL1       -0.1545
     37 O          62.2152   84.1325   16.4243 O.2     1  UNL1       -0.1545
     38 C          63.6037   85.7327   16.5296 C.3     1  UNL1        0.1724
     39 C          62.9631   88.1644   17.1827 C.3     1  UNL1        0.0019
     40 C          62.9237   86.6912   17.4618 C.3     1  UNL1        0.0273
@<TRIPOS>BOND
     1    39    40    1
     2    40    38    1
     3    38    35    1
     4    35    36    2
     5    35    37    2
     6    35    33    1
     7    33    25    1
     8    25    26   ar
     9    26    27   ar
    10    27    28   ar
    11    28    29    1
    12    28    30   ar
    13    30    23    1
    14    23    24    2
    15    23     1    1
    16     1     2   ar
    17     2     3   ar
    18     3     4   ar
    19     4     5   ar
    20     5     6   ar
    21     6     7   ar
    22     7    11    1
    23    11    12   ar
    24    12    13   ar
    25    13    14   ar
    26    14    17    1
    27    17    18    2
    28    17    19   am
    29    19    21    1
    30    21    22    1
    31    14    15   ar
    32    15    16   ar
    33     7     8   ar
    34     8     9   ar
    35    30    31   ar
    36    31    32    1
    37    31    25   ar
    38     9     1   ar
    39     9     4    1
    40    16    11   ar
    41    33    34    1
    42     5    10    1
    43    19    20    1
@<TRIPOS>MOLECULE
*****
 40 43 0 0 0
SMALL
GASTEIGER

@<TRIPOS>ATOM
      1 C          64.1420   86.6253   15.6448 C.ar    1  UNL1        0.0611
      2 C          63.3635   86.1818   16.8478 C.ar    1  UNL1        0.1037
      3 N          62.7761   87.4009   17.4950 N.ar    1  UNL1       -0.2269
      4 C          63.1916   88.5978   16.6920 C.ar    1  UNL1        0.1407
      5 N          62.9103   90.0622   16.8543 N.ar    1  UNL1       -0.3374
      6 C          63.4732   91.0472   15.8731 C.ar    1  UNL1        0.0735
      7 C          64.3174   90.5679   14.7296 C.ar    1  UNL1        0.0186
      8 C          64.5987   89.1035   14.5673 C.ar    1  UNL1        0.0047
      9 C          64.0358   88.1184   15.5485 C.ar    1  UNL1        0.0386
     10 H          62.3563   90.3768   17.6048 H       1  UNL1        0.1674
     11 C          64.8803   91.5530   13.7484 C.ar    1  UNL1        0.0206
     12 C          65.9412   92.5208   14.1821 C.ar    1  UNL1        0.0033
     13 C          66.5041   93.5059   13.2009 C.ar    1  UNL1        0.0238
     14 C          66.0061   93.5233   11.7860 C.ar    1  UNL1        0.1345
     15 N          64.9452   92.5555   11.3524 N.ar    1  UNL1       -0.2393
     16 C          64.3823   91.5704   12.3336 C.ar    1  UNL1        0.0990
     17 C          66.5690   94.5083   10.8049 C.2     1  UNL1        0.2636
     18 O          66.5932   95.9702   11.1399 O.2     1  UNL1       -0.2685
     19 N          67.1075   94.0315    9.4886 N.am    1  UNL1       -0.2996
     20 H          67.0916   93.0720    9.2687 H       1  UNL1        0.1498
     21 C          67.6704   95.0166    8.5074 C.3     1  UNL1        0.0898
     22 C          66.8048   96.1169    7.9689 C.3     1  UNL1        0.0230
     23 C          64.8946   85.7324   14.7033 C.2     1  UNL1        0.2015
     24 O          66.3924   85.6760   14.7593 O.2     1  UNL1       -0.2864
     25 C          63.4221   82.5638   12.8213 C.ar    1  UNL1        0.0920
     26 C          62.6588   83.2230   11.7110 C.ar    1  UNL1        0.0204
     27 C          62.6408   84.7186   11.5981 C.ar    1  UNL1        0.0312
     28 C          63.3860   85.5551   12.5955 C.ar    1  UNL1        0.1454
     29 F          63.3680   87.0507   12.4826 F       1  UNL1       -0.2040
     30 C          64.1493   84.8959   13.7058 C.ar    1  UNL1        0.0951
     31 C          64.1674   83.4003   13.8187 C.ar    1  UNL1        0.1598
     32 F          64.9307   82.7412   14.9291 F       1  UNL1       -0.2026
     33 N          63.4402   81.0682   12.9342 N.pl3   1  UNL1       -0.2166
     34 H          64.2461   80.5648   12.6768 H       1  UNL1        0.1734
     35 S          62.2302   80.3395   13.4392 S.O2    1  UNL1        0.0540
     36 O          62.3541   79.3545   12.3148 O.2     1  UNL1       -0.1545
     37 O          62.1063   81.3246   14.5636 O.2     1  UNL1       -0.1545
     38 C          61.0202   79.6110   13.9443 C.3     1  UNL1        0.1724
     39 C          58.5403   79.6367   14.7186 C.3     1  UNL1        0.0019
     40 C          59.7328   80.3512   14.1552 C.3     1  UNL1        0.0273
@<TRIPOS>BOND
     1    39    40    1
     2    40    38    1
     3    38    35    1
     4    35    36    2
     5    35    37    2
     6    35    33    1
     7    33    25    1
     8    25    26   ar
     9    26    27   ar
    10    27    28   ar
    11    28    29    1
    12    28    30   ar
    13    30    23    1
    14    23    24    2
    15    23     1    1
    16     1     2   ar
    17     2     3   ar
    18     3     4   ar
    19     4     5   ar
    20     5     6   ar
    21     6     7   ar
    22     7    11    1
    23    11    12   ar
    24    12    13   ar
    25    13    14   ar
    26    14    17    1
    27    17    18    2
    28    17    19   am
    29    19    21    1
    30    21    22    1
    31    14    15   ar
    32    15    16   ar
    33     7     8   ar
    34     8     9   ar
    35    30    31   ar
    36    31    32    1
    37    31    25   ar
    38     9     1   ar
    39     9     4    1
    40    16    11   ar
    41    33    34    1
    42     5    10    1
    43    19    20    1
@<TRIPOS>MOLECULE
*****
 40 43 0 0 0
SMALL
GASTEIGER

@<TRIPOS>ATOM
      1 C          63.4589   84.2563   13.5324 C.ar    1  UNL1        0.0611
      2 C          62.8932   83.2424   14.4821 C.ar    1  UNL1        0.1037
      3 N          62.6466   83.9242   15.7952 N.ar    1  UNL1       -0.2269
      4 C          63.0598   85.3596   15.6571 C.ar    1  UNL1        0.1407
      5 N          63.0438   86.5062   16.6240 N.ar    1  UNL1       -0.3374
      6 C          63.5298   87.8580   16.1925 C.ar    1  UNL1        0.0735
      7 C          64.0318   88.0632   14.7940 C.ar    1  UNL1        0.0186
      8 C          64.0478   86.9167   13.8270 C.ar    1  UNL1        0.0047
      9 C          63.5618   85.5648   14.2586 C.ar    1  UNL1        0.0386
     10 H          62.7143   86.3715   17.5419 H       1  UNL1        0.1674
     11 C          64.5178   89.4152   14.3624 C.ar    1  UNL1        0.0206
     12 C          65.8391   89.9288   14.8526 C.ar    1  UNL1        0.0033
     13 C          66.3252   91.2807   14.4211 C.ar    1  UNL1        0.0238
     14 C          65.4898   92.1190   13.4993 C.ar    1  UNL1        0.1345
     15 N          64.1685   91.6053   13.0092 N.ar    1  UNL1       -0.2393
     16 C          63.6825   90.2534   13.4407 C.ar    1  UNL1        0.0990
     17 C          65.9758   93.4708   13.0678 C.2     1  UNL1        0.2636
     18 O          66.6502   94.3759   14.0557 O.2     1  UNL1       -0.2685
     19 N          65.7874   93.9175   11.6484 N.am    1  UNL1       -0.2996
     20 H          65.3448   93.3235   11.0000 H       1  UNL1        0.1498
     21 C          66.2734   95.2695   11.2167 C.3     1  UNL1        0.0898
     22 C          66.6649   95.5048    9.7880 C.3     1  UNL1        0.0230
     23 C          63.8525   84.0058   12.1068 C.2     1  UNL1        0.2015
     24 O          64.9980   83.0892   11.7950 O.2     1  UNL1       -0.2864
     25 C          61.1689   86.2120   10.1881 C.ar    1  UNL1        0.0920
     26 C          61.5964   86.0044    8.7653 C.ar    1  UNL1        0.0204
     27 C          62.7759   85.1307    8.4564 C.ar    1  UNL1        0.0312
     28 C          63.5279   84.4645    9.5702 C.ar    1  UNL1        0.1454
     29 F          64.7074   83.5908    9.2613 F       1  UNL1       -0.2040
     30 C          63.1004   84.6720   10.9929 C.ar    1  UNL1        0.0951
     31 C          61.9210   85.5458   11.3018 C.ar    1  UNL1        0.1598
     32 F          61.4935   85.7533   12.7246 F       1  UNL1       -0.2026
     33 N          59.9894   87.0857   10.4970 N.pl3   1  UNL1       -0.2166
     34 H          59.1190   86.6795   10.7129 H       1  UNL1        0.1734
     35 S          60.1361   88.5784   10.4768 S.O2    1  UNL1        0.0540
     36 O          60.1500   88.5568    8.9771 O.2     1  UNL1       -0.1545
     37 O          60.1222   88.5999   11.9766 O.2     1  UNL1       -0.1545
     38 C          60.2828   90.0710   10.4568 C.3     1  UNL1        0.1724
     39 C          62.6790   90.8927    9.8797 C.3     1  UNL1        0.0019
     40 C          61.5761   90.7033   10.8785 C.3     1  UNL1        0.0273
@<TRIPOS>BOND
     1    39    40    1
     2    40    38    1
     3    38    35    1
     4    35    36    2
     5    35    37    2
     6    35    33    1
     7    33    25    1
     8    25    26   ar
     9    26    27   ar
    10    27    28   ar
    11    28    29    1
    12    28    30   ar
    13    30    23    1
    14    23    24    2
    15    23     1    1
    16     1     2   ar
    17     2     3   ar
    18     3     4   ar
    19     4     5   ar
    20     5     6   ar
    21     6     7   ar
    22     7    11    1
    23    11    12   ar
    24    12    13   ar
    25    13    14   ar
    26    14    17    1
    27    17    18    2
    28    17    19   am
    29    19    21    1
    30    21    22    1
    31    14    15   ar
    32    15    16   ar
    33     7     8   ar
    34     8     9   ar
    35    30    31   ar
    36    31    32    1
    37    31    25   ar
    38     9     1   ar
    39     9     4    1
    40    16    11   ar
    41    33    34    1
    42     5    10    1
    43    19    20    1
@<TRIPOS>MOLECULE
*****
 40 43 0 0 0
SMALL
GASTEIGER

@<TRIPOS>ATOM
      1 C          64.6091   90.7942   15.0017 C.ar    1  UNL1        0.0611
      2 C          64.3271   91.8448   16.0345 C.ar    1  UNL1        0.1037
      3 N          63.6375   91.1843   17.1913 N.ar    1  UNL1       -0.2269
      4 C          63.4933   89.7255   16.8735 C.ar    1  UNL1        0.1407
      5 N          62.8928   88.5856   17.6415 N.ar    1  UNL1       -0.3374
      6 C          62.8928   87.2045   17.0563 C.ar    1  UNL1        0.0735
      7 C          63.4933   86.9633   15.7030 C.ar    1  UNL1        0.0186
      8 C          64.0938   88.1033   14.9350 C.ar    1  UNL1        0.0047
      9 C          64.0938   89.4843   15.5203 C.ar    1  UNL1        0.0386
     10 H          62.4986   88.7438   18.5297 H       1  UNL1        0.1674
     11 C          63.4933   85.5821   15.1178 C.ar    1  UNL1        0.0206
     12 C          64.6404   85.1294   14.2640 C.ar    1  UNL1        0.0033
     13 C          64.6404   83.7482   13.6787 C.ar    1  UNL1        0.0238
     14 C          63.4932   82.8198   13.9474 C.ar    1  UNL1        0.1345
     15 N          62.3461   83.2726   14.8014 N.ar    1  UNL1       -0.2393
     16 C          62.3461   84.6538   15.3865 C.ar    1  UNL1        0.0990
     17 C          63.4932   81.4387   13.3623 C.2     1  UNL1        0.2636
     18 O          63.9159   80.2689   14.2007 O.2     1  UNL1       -0.2685
     19 N          63.0704   81.2274   11.9387 N.am    1  UNL1       -0.2996
     20 H          62.7929   81.9951   11.3885 H       1  UNL1        0.1498
     21 C          63.0703   79.8462   11.3535 C.3     1  UNL1        0.0898
     22 C          62.7716   79.6489    9.8969 C.3     1  UNL1        0.0230
     23 C          65.2874   91.0146   13.6821 C.2     1  UNL1        0.2015
     24 O          66.7835   91.0955   13.6121 O.2     1  UNL1       -0.2864
     25 C          62.3407   90.5745   11.0603 C.ar    1  UNL1        0.0920
     26 C          62.8335   91.4330    9.9333 C.ar    1  UNL1        0.0204
     27 C          64.1443   92.1519   10.0559 C.ar    1  UNL1        0.0312
     28 C          64.9622   92.0125   11.3054 C.ar    1  UNL1        0.1454
     29 F          66.2730   92.7315   11.4280 F       1  UNL1       -0.2040
     30 C          64.4694   91.1541   12.4324 C.ar    1  UNL1        0.0951
     31 C          63.1586   90.4351   12.3099 C.ar    1  UNL1        0.1598
     32 F          62.6659   89.5767   13.4370 F       1  UNL1       -0.2026
     33 N          61.0299   89.8556   10.9377 N.pl3   1  UNL1       -0.2166
     34 H          60.1896   90.3671   10.8998 H       1  UNL1        0.1734
     35 S          60.9996   88.3573   10.8729 S.O2    1  UNL1        0.0540
     36 O          61.9731   88.3869    9.7322 O.2     1  UNL1       -0.1545
     37 O          60.0260   88.3276   12.0136 O.2     1  UNL1       -0.1545
     38 C          60.9692   86.8590   10.8081 C.3     1  UNL1        0.1724
     39 C          62.5879   84.8270   10.8411 C.3     1  UNL1        0.0019
     40 C          62.0332   86.0568   11.4968 C.3     1  UNL1        0.0273
@<TRIPOS>BOND
     1    39    40    1
     2    40    38    1
     3    38    35    1
     4    35    36    2
     5    35    37    2
     6    35    33    1
     7    33    25    1
     8    25    26   ar
     9    26    27   ar
    10    27    28   ar
    11    28    29    1
    12    28    30   ar
    13    30    23    1
    14    23    24    2
    15    23     1    1
    16     1     2   ar
    17     2     3   ar
    18     3     4   ar
    19     4     5   ar
    20     5     6   ar
    21     6     7   ar
    22     7    11    1
    23    11    12   ar
    24    12    13   ar
    25    13    14   ar
    26    14    17    1
    27    17    18    2
    28    17    19   am
    29    19    21    1
    30    21    22    1
    31    14    15   ar
    32    15    16   ar
    33     7     8   ar
    34     8     9   ar
    35    30    31   ar
    36    31    32    1
    37    31    25   ar
    38     9     1   ar
    39     9     4    1
    40    16    11   ar
    41    33    34    1
    42     5    10    1
    43    19    20    1
