@<TRIPOS>MOLECULE
*****
 27 31 0 0 0
SMALL
GASTEIGER

@<TRIPOS>ATOM
      1 C          62.7351   83.7158   13.8225 C.3     1  UNL1        0.0007
      2 C          62.7101   82.3962   13.1098 C.3     1  UNL1        0.0088
      3 C          63.1060   83.6909   12.4643 C.3     1  UNL1        0.0007
      4 C          62.2503   81.5475   14.2579 C.3     1  UNL1        0.0286
      5 C          62.1456   80.1313   13.7747 C.3     1  UNL1        0.0049
      6 C          62.5406   80.1048   12.3279 C.3     1  UNL1        0.0059
      7 C          62.8895   81.5046   11.9170 C.3     1  UNL1        0.0352
      8 C          63.3389   81.9369   10.5528 C.3     1  UNL1        0.0059
      9 C          62.9942   82.9208   12.4002 C.ar    1  UNL1        0.0544
     10 C          62.5991   82.9473   13.8470 C.ar    1  UNL1        0.0484
     11 C          62.7038   84.3635   14.3302 C.ar    1  UNL1        0.2759
     12 O          62.4018   84.8461   15.7180 O.2     1  UNL1       -0.2655
     13 N          63.1636   85.2121   13.1821 N.ar    1  UNL1       -0.2145
     14 N          63.3431   84.3206   11.9893 N.ar    1  UNL1       -0.2638
     15 C          63.4021   86.6926   13.2201 C.ar    1  UNL1        0.0841
     16 C          62.8627   87.5674   12.1276 C.ar    1  UNL1        0.0192
     17 C          63.1011   89.0478   12.1656 C.ar    1  UNL1        0.0015
     18 C          63.8790   89.6534   13.2962 C.ar    1  UNL1        0.0001
     19 C          64.4184   88.7786   14.3887 C.ar    1  UNL1        0.0015
     20 C          64.1799   87.2981   14.3507 C.ar    1  UNL1        0.0192
     21 C          63.7925   84.7529   10.6251 C.3     1  UNL1        0.1519
     22 C          62.7784   85.1205    9.5829 C.ar    1  UNL1        0.0020
     23 C          61.5295   85.8520    9.9768 C.ar    1  UNL1       -0.0023
     24 C          60.5153   86.2197    8.9344 C.ar    1  UNL1       -0.0003
     25 C          60.7501   85.8559    7.4982 C.ar    1  UNL1       -0.0000
     26 C          61.9990   85.1244    7.1044 C.ar    1  UNL1       -0.0003
     27 C          63.0131   84.7567    8.1467 C.ar    1  UNL1       -0.0023
@<TRIPOS>BOND
     1     1     2    1
     2     2     3    1
     3     2     4    1
     4     4     5    1
     5     5     6    1
     6     6     7    1
     7     7     8    1
     8     7     9    1
     9     9    10   ar
    10    10    11   ar
    11    11    12    2
    12    11    13   ar
    13    13    15    1
    14    15    16   ar
    15    16    17   ar
    16    17    18   ar
    17    18    19   ar
    18    19    20   ar
    19    13    14   ar
    20    14    21    1
    21    21    22    1
    22    22    23   ar
    23    23    24   ar
    24    24    25   ar
    25    25    26   ar
    26    26    27   ar
    27     7     2    1
    28    14     9   ar
    29    27    22   ar
    30    10     4    1
    31    20    15   ar
@<TRIPOS>MOLECULE
*****
 27 31 0 0 0
SMALL
GASTEIGER

@<TRIPOS>ATOM
      1 C          63.8796   89.7023   12.9180 C.3     1  UNL1        0.0007
      2 C          63.0391   89.6822   11.6759 C.3     1  UNL1        0.0088
      3 C          63.9414   90.8172   12.0600 C.3     1  UNL1        0.0007
      4 C          62.4058   88.3370   11.8740 C.3     1  UNL1        0.0286
      5 C          61.4876   88.0818   10.7157 C.3     1  UNL1        0.0049
      6 C          61.5533   89.2693    9.8017 C.3     1  UNL1        0.0059
      7 C          62.5122   90.2584   10.3951 C.3     1  UNL1        0.0352
      8 C          62.8797   91.5900    9.8104 C.3     1  UNL1        0.0059
      9 C          63.4305   90.5136   11.5534 C.ar    1  UNL1        0.0544
     10 C          63.3648   89.3260   12.4674 C.ar    1  UNL1        0.0484
     11 C          64.2831   89.5812   13.6257 C.ar    1  UNL1        0.2759
     12 O          64.5255   88.6539   14.7796 O.2     1  UNL1       -0.2655
     13 N          64.9163   90.9264   13.4276 N.ar    1  UNL1       -0.2145
     14 N          64.3895   91.5027   12.1469 N.ar    1  UNL1       -0.2638
     15 C          65.9032   91.5806   14.3485 C.ar    1  UNL1        0.0841
     16 C          67.3445   91.6901   13.9478 C.ar    1  UNL1        0.0192
     17 C          68.3314   92.3442   14.8687 C.ar    1  UNL1        0.0015
     18 C          67.8770   92.8889   16.1904 C.ar    1  UNL1        0.0001
     19 C          66.4357   92.7793   16.5911 C.ar    1  UNL1        0.0015
     20 C          65.4488   92.1252   15.6702 C.ar    1  UNL1        0.0192
     21 C          64.7569   92.8343   11.5622 C.3     1  UNL1        0.1519
     22 C          66.0231   92.9826   10.7718 C.ar    1  UNL1        0.0020
     23 C          66.9610   91.8203   10.6327 C.ar    1  UNL1       -0.0023
     24 C          68.2272   91.9687    9.8422 C.ar    1  UNL1       -0.0003
     25 C          68.5555   93.2795    9.1909 C.ar    1  UNL1       -0.0000
     26 C          67.6176   94.4418    9.3301 C.ar    1  UNL1       -0.0003
     27 C          66.3514   94.2934   10.1205 C.ar    1  UNL1       -0.0023
@<TRIPOS>BOND
     1     1     2    1
     2     2     3    1
     3     2     4    1
     4     4     5    1
     5     5     6    1
     6     6     7    1
     7     7     8    1
     8     7     9    1
     9     9    10   ar
    10    10    11   ar
    11    11    12    2
    12    11    13   ar
    13    13    15    1
    14    15    16   ar
    15    16    17   ar
    16    17    18   ar
    17    18    19   ar
    18    19    20   ar
    19    13    14   ar
    20    14    21    1
    21    21    22    1
    22    22    23   ar
    23    23    24   ar
    24    24    25   ar
    25    25    26   ar
    26    26    27   ar
    27     7     2    1
    28    14     9   ar
    29    27    22   ar
    30    10     4    1
    31    20    15   ar
@<TRIPOS>MOLECULE
*****
 27 31 0 0 0
SMALL
GASTEIGER

@<TRIPOS>ATOM
      1 C          63.4326   87.7823   12.7983 C.3     1  UNL1        0.0007
      2 C          63.0788   89.0099   12.0124 C.3     1  UNL1        0.0088
      3 C          62.4694   87.6595   11.7784 C.3     1  UNL1        0.0007
      4 C          63.9940   89.9738   12.7075 C.3     1  UNL1        0.0286
      5 C          63.8147   91.3219   12.0745 C.3     1  UNL1        0.0049
      6 C          62.7886   91.1911   10.9882 C.3     1  UNL1        0.0059
      7 C          62.3339   89.7622   10.9498 C.3     1  UNL1        0.0352
      8 C          61.3133   89.1866   10.0132 C.3     1  UNL1        0.0059
      9 C          62.5132   88.4141   11.5827 C.ar    1  UNL1        0.0544
     10 C          63.5393   88.5449   12.6691 C.ar    1  UNL1        0.0484
     11 C          63.7186   87.1969   13.3020 C.ar    1  UNL1        0.2759
     12 O          64.6497   86.8702   14.4318 O.2     1  UNL1       -0.2655
     13 N          62.8034   86.2330   12.6069 N.ar    1  UNL1       -0.2145
     14 N          62.0584   86.9852   11.5444 N.ar    1  UNL1       -0.2638
     15 C          62.6586   84.7731   12.9195 C.ar    1  UNL1        0.0841
     16 C          62.3861   84.3308   14.3266 C.ar    1  UNL1        0.0192
     17 C          62.2413   82.8709   14.6392 C.ar    1  UNL1        0.0015
     18 C          62.3690   81.8533   13.5446 C.ar    1  UNL1        0.0001
     19 C          62.6415   82.2956   12.1375 C.ar    1  UNL1        0.0015
     20 C          62.7863   83.7555   11.8249 C.ar    1  UNL1        0.0192
     21 C          61.0379   86.4097   10.6078 C.3     1  UNL1        0.1519
     22 C          61.4612   85.8843    9.2681 C.ar    1  UNL1        0.0020
     23 C          60.4913   85.8790    8.1239 C.ar    1  UNL1       -0.0023
     24 C          60.9148   85.3535    6.7842 C.ar    1  UNL1       -0.0003
     25 C          62.3081   84.8333    6.5888 C.ar    1  UNL1       -0.0000
     26 C          63.2779   84.8386    7.7332 C.ar    1  UNL1       -0.0003
     27 C          62.8545   85.3640    9.0728 C.ar    1  UNL1       -0.0023
@<TRIPOS>BOND
     1     1     2    1
     2     2     3    1
     3     2     4    1
     4     4     5    1
     5     5     6    1
     6     6     7    1
     7     7     8    1
     8     7     9    1
     9     9    10   ar
    10    10    11   ar
    11    11    12    2
    12    11    13   ar
    13    13    15    1
    14    15    16   ar
    15    16    17   ar
    16    17    18   ar
    17    18    19   ar
    18    19    20   ar
    19    13    14   ar
    20    14    21    1
    21    21    22    1
    22    22    23   ar
    23    23    24   ar
    24    24    25   ar
    25    25    26   ar
    26    26    27   ar
    27     7     2    1
    28    14     9   ar
    29    27    22   ar
    30    10     4    1
    31    20    15   ar
@<TRIPOS>MOLECULE
*****
 27 31 0 0 0
SMALL
GASTEIGER

@<TRIPOS>ATOM
      1 C          64.4233   91.4623   11.7775 C.3     1  UNL1        0.0007
      2 C          63.0847   90.8208   11.5618 C.3     1  UNL1        0.0088
      3 C          63.7654   90.9136   12.8951 C.3     1  UNL1        0.0007
      4 C          62.9795   91.0493   10.0830 C.3     1  UNL1        0.0286
      5 C          61.6754   90.4733    9.6166 C.3     1  UNL1        0.0049
      6 C          60.9746   89.8888   10.8071 C.3     1  UNL1        0.0059
      7 C          61.8456   90.1036   12.0092 C.3     1  UNL1        0.0352
      8 C          61.5324   89.6762   13.4126 C.3     1  UNL1        0.0059
      9 C          63.1497   90.6796   12.4757 C.ar    1  UNL1        0.0544
     10 C          63.8505   91.2641   11.2852 C.ar    1  UNL1        0.0484
     11 C          65.1546   91.8401   11.7516 C.ar    1  UNL1        0.2759
     12 O          66.1744   92.5244   10.8904 O.2     1  UNL1       -0.2655
     13 N          65.2597   91.6116   13.2303 N.ar    1  UNL1       -0.2145
     14 N          64.0207   90.8944   13.6778 N.ar    1  UNL1       -0.2638
     15 C          66.4032   92.0274   14.1075 C.ar    1  UNL1        0.0841
     16 C          67.8152   91.8492   13.6338 C.ar    1  UNL1        0.0192
     17 C          68.9587   92.2650   14.5110 C.ar    1  UNL1        0.0015
     18 C          68.6902   92.8589   15.8620 C.ar    1  UNL1        0.0001
     19 C          67.2782   93.0370   16.3357 C.ar    1  UNL1        0.0015
     20 C          66.1347   92.6213   15.4585 C.ar    1  UNL1        0.0192
     21 C          63.7075   90.4670   15.0812 C.3     1  UNL1        0.1519
     22 C          63.7310   89.0120   15.4449 C.ar    1  UNL1        0.0020
     23 C          63.0672   88.5434   16.7058 C.ar    1  UNL1       -0.0023
     24 C          63.0907   87.0882   17.0695 C.ar    1  UNL1       -0.0003
     25 C          63.7779   86.1019   16.1724 C.ar    1  UNL1       -0.0000
     26 C          64.4417   86.5706   14.9115 C.ar    1  UNL1       -0.0003
     27 C          64.4182   88.0257   14.5478 C.ar    1  UNL1       -0.0023
@<TRIPOS>BOND
     1     1     2    1
     2     2     3    1
     3     2     4    1
     4     4     5    1
     5     5     6    1
     6     6     7    1
     7     7     8    1
     8     7     9    1
     9     9    10   ar
    10    10    11   ar
    11    11    12    2
    12    11    13   ar
    13    13    15    1
    14    15    16   ar
    15    16    17   ar
    16    17    18   ar
    17    18    19   ar
    18    19    20   ar
    19    13    14   ar
    20    14    21    1
    21    21    22    1
    22    22    23   ar
    23    23    24   ar
    24    24    25   ar
    25    25    26   ar
    26    26    27   ar
    27     7     2    1
    28    14     9   ar
    29    27    22   ar
    30    10     4    1
    31    20    15   ar
@<TRIPOS>MOLECULE
*****
 27 31 0 0 0
SMALL
GASTEIGER

@<TRIPOS>ATOM
      1 C          65.3397   91.2192   13.3470 C.3     1  UNL1        0.0007
      2 C          65.1222   91.9755   12.0701 C.3     1  UNL1        0.0088
      3 C          64.2104   90.8950   12.5708 C.3     1  UNL1        0.0007
      4 C          66.3265   92.8664   12.1473 C.3     1  UNL1        0.0286
      5 C          66.3288   93.7490   10.9345 C.3     1  UNL1        0.0049
      6 C          65.1259   93.4036   10.1077 C.3     1  UNL1        0.0059
      7 C          64.3802   92.3076   10.8095 C.3     1  UNL1        0.0352
      8 C          63.1146   91.6576   10.3342 C.3     1  UNL1        0.0059
      9 C          64.3779   91.4250   12.0224 C.ar    1  UNL1        0.0544
     10 C          65.5809   91.7704   12.8492 C.ar    1  UNL1        0.0484
     11 C          65.5786   90.8878   14.0621 C.ar    1  UNL1        0.2759
     12 O          66.6012   90.8948   15.1595 O.2     1  UNL1       -0.2655
     13 N          64.3743   89.9970   13.9848 N.ar    1  UNL1       -0.2145
     14 N          63.6323   90.3289   12.7243 N.ar    1  UNL1       -0.2638
     15 C          63.9811   88.9567   14.9914 C.ar    1  UNL1        0.0841
     16 C          64.3626   87.5222   14.7757 C.ar    1  UNL1        0.0192
     17 C          63.9694   86.4820   15.7823 C.ar    1  UNL1        0.0015
     18 C          63.1947   86.8763   17.0047 C.ar    1  UNL1        0.0001
     19 C          62.8132   88.3108   17.2205 C.ar    1  UNL1        0.0015
     20 C          63.2064   89.3510   16.2138 C.ar    1  UNL1        0.0192
     21 C          62.3667   89.6790   12.2490 C.3     1  UNL1        0.1519
     22 C          62.4261   88.3832   11.4958 C.ar    1  UNL1        0.0020
     23 C          62.2102   88.3678   10.0115 C.ar    1  UNL1       -0.0023
     24 C          62.2696   87.0719    9.2583 C.ar    1  UNL1       -0.0003
     25 C          62.5449   85.7914    9.9895 C.ar    1  UNL1       -0.0000
     26 C          62.7608   85.8068   11.4738 C.ar    1  UNL1       -0.0003
     27 C          62.7014   87.1027   12.2269 C.ar    1  UNL1       -0.0023
@<TRIPOS>BOND
     1     1     2    1
     2     2     3    1
     3     2     4    1
     4     4     5    1
     5     5     6    1
     6     6     7    1
     7     7     8    1
     8     7     9    1
     9     9    10   ar
    10    10    11   ar
    11    11    12    2
    12    11    13   ar
    13    13    15    1
    14    15    16   ar
    15    16    17   ar
    16    17    18   ar
    17    18    19   ar
    18    19    20   ar
    19    13    14   ar
    20    14    21    1
    21    21    22    1
    22    22    23   ar
    23    23    24   ar
    24    24    25   ar
    25    25    26   ar
    26    26    27   ar
    27     7     2    1
    28    14     9   ar
    29    27    22   ar
    30    10     4    1
    31    20    15   ar
@<TRIPOS>MOLECULE
*****
 27 31 0 0 0
SMALL
GASTEIGER

@<TRIPOS>ATOM
      1 C          62.3241   87.1966   11.2579 C.3     1  UNL1        0.0007
      2 C          62.5814   88.6696   11.3759 C.3     1  UNL1        0.0088
      3 C          63.1555   87.6407   12.3041 C.3     1  UNL1        0.0007
      4 C          61.7595   89.1197   10.2046 C.3     1  UNL1        0.0286
      5 C          61.8625   90.6133   10.1126 C.3     1  UNL1        0.0049
      6 C          62.7480   91.0864   11.2271 C.3     1  UNL1        0.0059
      7 C          63.1923   89.8851   12.0078 C.3     1  UNL1        0.0352
      8 C          64.0899   89.8972   13.2095 C.3     1  UNL1        0.0059
      9 C          63.0893   88.3915   12.0998 C.ar    1  UNL1        0.0544
     10 C          62.2038   87.9184   10.9853 C.ar    1  UNL1        0.0484
     11 C          62.1008   86.4248   11.0773 C.ar    1  UNL1        0.2759
     12 O          61.3141   85.5371   10.1592 O.2     1  UNL1       -0.2655
     13 N          62.9227   85.9748   12.2486 N.ar    1  UNL1       -0.2145
     14 N          63.5336   87.1902   12.8806 N.ar    1  UNL1       -0.2638
     15 C          63.1021   84.5580   12.7074 C.ar    1  UNL1        0.0841
     16 C          62.2506   84.0153   13.8167 C.ar    1  UNL1        0.0192
     17 C          62.4301   82.5985   14.2755 C.ar    1  UNL1        0.0015
     18 C          63.4609   81.7244   13.6250 C.ar    1  UNL1        0.0001
     19 C          64.3124   82.2671   12.5158 C.ar    1  UNL1        0.0015
     20 C          64.1330   83.6839   12.0570 C.ar    1  UNL1        0.0192
     21 C          64.4312   87.2023   14.0823 C.3     1  UNL1        0.1519
     22 C          63.8426   87.1124   15.4590 C.ar    1  UNL1        0.0020
     23 C          63.6286   85.7719   16.0972 C.ar    1  UNL1       -0.0023
     24 C          63.0400   85.6822   17.4740 C.ar    1  UNL1       -0.0003
     25 C          62.6654   86.9328   18.2126 C.ar    1  UNL1       -0.0000
     26 C          62.8794   88.2733   17.5743 C.ar    1  UNL1       -0.0003
     27 C          63.4680   88.3631   16.1976 C.ar    1  UNL1       -0.0023
@<TRIPOS>BOND
     1     1     2    1
     2     2     3    1
     3     2     4    1
     4     4     5    1
     5     5     6    1
     6     6     7    1
     7     7     8    1
     8     7     9    1
     9     9    10   ar
    10    10    11   ar
    11    11    12    2
    12    11    13   ar
    13    13    15    1
    14    15    16   ar
    15    16    17   ar
    16    17    18   ar
    17    18    19   ar
    18    19    20   ar
    19    13    14   ar
    20    14    21    1
    21    21    22    1
    22    22    23   ar
    23    23    24   ar
    24    24    25   ar
    25    25    26   ar
    26    26    27   ar
    27     7     2    1
    28    14     9   ar
    29    27    22   ar
    30    10     4    1
    31    20    15   ar
@<TRIPOS>MOLECULE
*****
 27 31 0 0 0
SMALL
GASTEIGER

@<TRIPOS>ATOM
      1 C          61.6226   86.3371   10.0825 C.3     1  UNL1        0.0007
      2 C          60.7540   87.2102    9.2263 C.3     1  UNL1        0.0088
      3 C          61.3804   87.6554   10.5145 C.3     1  UNL1        0.0007
      4 C          60.4651   86.2166    8.1404 C.3     1  UNL1        0.0286
      5 C          59.5803   86.8810    7.1276 C.3     1  UNL1        0.0049
      6 C          59.3223   88.2852    7.5877 C.3     1  UNL1        0.0059
      7 C          60.0477   88.4886    8.8847 C.3     1  UNL1        0.0352
      8 C          60.0639   89.7492    9.6975 C.3     1  UNL1        0.0059
      9 C          60.9326   87.8243    9.8975 C.ar    1  UNL1        0.0544
     10 C          61.1906   86.4201    9.4374 C.ar    1  UNL1        0.0484
     11 C          62.0754   85.7557   10.4502 C.ar    1  UNL1        0.2759
     12 O          62.5824   84.3454   10.3879 O.2     1  UNL1       -0.2655
     13 N          62.3643   86.7493   11.5361 N.ar    1  UNL1       -0.2145
     14 N          61.6580   88.0277   11.1946 N.ar    1  UNL1       -0.2638
     15 C          63.2108   86.5070   12.7504 C.ar    1  UNL1        0.0841
     16 C          63.5042   85.1040   13.1924 C.ar    1  UNL1        0.0192
     17 C          64.3507   84.8617   14.4067 C.ar    1  UNL1        0.0015
     18 C          64.9040   86.0224   15.1791 C.ar    1  UNL1        0.0001
     19 C          64.6106   87.4254   14.7371 C.ar    1  UNL1        0.0015
     20 C          63.7641   87.6677   13.5228 C.ar    1  UNL1        0.0192
     21 C          61.6742   89.2883   12.0073 C.3     1  UNL1        0.1519
     22 C          62.7919   90.2745   11.8396 C.ar    1  UNL1        0.0020
     23 C          63.1092   90.8245   10.4806 C.ar    1  UNL1       -0.0023
     24 C          64.2270   91.8107   10.3130 C.ar    1  UNL1       -0.0003
     25 C          65.0273   92.2470   11.5042 C.ar    1  UNL1       -0.0000
     26 C          64.7099   91.6970   12.8632 C.ar    1  UNL1       -0.0003
     27 C          63.5922   90.7108   13.0309 C.ar    1  UNL1       -0.0023
@<TRIPOS>BOND
     1     1     2    1
     2     2     3    1
     3     2     4    1
     4     4     5    1
     5     5     6    1
     6     6     7    1
     7     7     8    1
     8     7     9    1
     9     9    10   ar
    10    10    11   ar
    11    11    12    2
    12    11    13   ar
    13    13    15    1
    14    15    16   ar
    15    16    17   ar
    16    17    18   ar
    17    18    19   ar
    18    19    20   ar
    19    13    14   ar
    20    14    21    1
    21    21    22    1
    22    22    23   ar
    23    23    24   ar
    24    24    25   ar
    25    25    26   ar
    26    26    27   ar
    27     7     2    1
    28    14     9   ar
    29    27    22   ar
    30    10     4    1
    31    20    15   ar
@<TRIPOS>MOLECULE
*****
 27 31 0 0 0
SMALL
GASTEIGER

@<TRIPOS>ATOM
      1 C          63.0421   84.6522   10.3282 C.3     1  UNL1        0.0007
      2 C          62.4392   85.1830    9.0615 C.3     1  UNL1        0.0088
      3 C          62.3312   85.8662   10.3924 C.3     1  UNL1        0.0007
      4 C          62.8870   84.0862    8.1414 C.3     1  UNL1        0.0286
      5 C          62.3865   84.4037    6.7635 C.3     1  UNL1        0.0049
      6 C          61.6293   85.6968    6.8319 C.3     1  UNL1        0.0059
      7 C          61.6619   86.1784    8.2521 C.3     1  UNL1        0.0352
      8 C          61.0284   87.4349    8.7718 C.3     1  UNL1        0.0059
      9 C          62.1624   85.8609    9.6301 C.ar    1  UNL1        0.0544
     10 C          62.9196   84.5678    9.5616 C.ar    1  UNL1        0.0484
     11 C          63.4201   84.2503   10.9396 C.ar    1  UNL1        0.2759
     12 O          64.2268   83.0472   11.3290 O.2     1  UNL1       -0.2655
     13 N          62.9723   85.3471   11.8595 N.ar    1  UNL1       -0.2145
     14 N          62.1950   86.3425   11.0503 N.ar    1  UNL1       -0.2638
     15 C          63.2526   85.4334   13.3306 C.ar    1  UNL1        0.0841
     16 C          64.2072   86.4657   13.8529 C.ar    1  UNL1        0.0192
     17 C          64.4875   86.5520   15.3239 C.ar    1  UNL1        0.0015
     18 C          63.8131   85.6059   16.2727 C.ar    1  UNL1        0.0001
     19 C          62.8584   84.5736   15.7503 C.ar    1  UNL1        0.0015
     20 C          62.5782   84.4873   14.2793 C.ar    1  UNL1        0.0192
     21 C          61.5615   87.5990   11.5699 C.3     1  UNL1        0.1519
     22 C          62.3398   88.8812   11.5835 C.ar    1  UNL1        0.0020
     23 C          62.3620   89.7580   10.3666 C.ar    1  UNL1       -0.0023
     24 C          63.1403   91.0402   10.3803 C.ar    1  UNL1       -0.0003
     25 C          63.8965   91.4456   11.6107 C.ar    1  UNL1       -0.0000
     26 C          63.8743   90.5687   12.8275 C.ar    1  UNL1       -0.0003
     27 C          63.0959   89.2865   12.8139 C.ar    1  UNL1       -0.0023
@<TRIPOS>BOND
     1     1     2    1
     2     2     3    1
     3     2     4    1
     4     4     5    1
     5     5     6    1
     6     6     7    1
     7     7     8    1
     8     7     9    1
     9     9    10   ar
    10    10    11   ar
    11    11    12    2
    12    11    13   ar
    13    13    15    1
    14    15    16   ar
    15    16    17   ar
    16    17    18   ar
    17    18    19   ar
    18    19    20   ar
    19    13    14   ar
    20    14    21    1
    21    21    22    1
    22    22    23   ar
    23    23    24   ar
    24    24    25   ar
    25    25    26   ar
    26    26    27   ar
    27     7     2    1
    28    14     9   ar
    29    27    22   ar
    30    10     4    1
    31    20    15   ar
@<TRIPOS>MOLECULE
*****
 27 31 0 0 0
SMALL
GASTEIGER

@<TRIPOS>ATOM
      1 C          61.0632   86.7101   10.5334 C.3     1  UNL1        0.0007
      2 C          60.9213   86.3677    9.0800 C.3     1  UNL1        0.0088
      3 C          61.9097   85.7180   10.0023 C.3     1  UNL1        0.0007
      4 C          59.8156   87.3249    8.7468 C.3     1  UNL1        0.0286
      5 C          59.4854   87.1638    7.2925 C.3     1  UNL1        0.0049
      6 C          60.3871   86.1069    6.7268 C.3     1  UNL1        0.0059
      7 C          61.2745   85.6149    7.8315 C.3     1  UNL1        0.0352
      8 C          62.3299   84.5560    7.7092 C.3     1  UNL1        0.0059
      9 C          61.6047   85.7760    9.2859 C.ar    1  UNL1        0.0544
     10 C          60.7030   86.8329    9.8516 C.ar    1  UNL1        0.0484
     11 C          61.0332   86.9940   11.3059 C.ar    1  UNL1        0.2759
     12 O          60.3734   87.9454   12.2596 O.2     1  UNL1       -0.2655
     13 N          62.1389   86.0368   11.6389 N.ar    1  UNL1       -0.2145
     14 N          62.4921   85.2840   10.3906 N.ar    1  UNL1       -0.2638
     15 C          62.7790   85.8628   12.9843 C.ar    1  UNL1        0.0841
     16 C          63.8366   86.8232   13.4415 C.ar    1  UNL1        0.0192
     17 C          64.4767   86.6492   14.7868 C.ar    1  UNL1        0.0015
     18 C          64.0593   85.5149   15.6750 C.ar    1  UNL1        0.0001
     19 C          63.0017   84.5544   15.2178 C.ar    1  UNL1        0.0015
     20 C          62.3616   84.7284   13.8724 C.ar    1  UNL1        0.0192
     21 C          63.5475   84.2251   10.2683 C.3     1  UNL1        0.1519
     22 C          63.6201   83.1184   11.2782 C.ar    1  UNL1        0.0020
     23 C          64.7864   83.0359   12.2178 C.ar    1  UNL1       -0.0023
     24 C          64.8590   81.9291   13.2278 C.ar    1  UNL1       -0.0003
     25 C          63.7653   80.9050   13.2981 C.ar    1  UNL1       -0.0000
     26 C          62.5990   80.9876   12.3584 C.ar    1  UNL1       -0.0003
     27 C          62.5264   82.0943   11.3485 C.ar    1  UNL1       -0.0023
@<TRIPOS>BOND
     1     1     2    1
     2     2     3    1
     3     2     4    1
     4     4     5    1
     5     5     6    1
     6     6     7    1
     7     7     8    1
     8     7     9    1
     9     9    10   ar
    10    10    11   ar
    11    11    12    2
    12    11    13   ar
    13    13    15    1
    14    15    16   ar
    15    16    17   ar
    16    17    18   ar
    17    18    19   ar
    18    19    20   ar
    19    13    14   ar
    20    14    21    1
    21    21    22    1
    22    22    23   ar
    23    23    24   ar
    24    24    25   ar
    25    25    26   ar
    26    26    27   ar
    27     7     2    1
    28    14     9   ar
    29    27    22   ar
    30    10     4    1
    31    20    15   ar
