@<TRIPOS>MOLECULE
*****
 38 43 0 0 0
SMALL
GASTEIGER

@<TRIPOS>ATOM
      1 C          63.0702   84.8602   13.0375 C.3     1  UNL1        0.2088
      2 C          62.7409   85.6294   11.7927 C.2     1  UNL1        0.3171
      3 N          63.0385   87.0977   11.7176 N.2     1  UNL1       -0.0232
      4 C          63.6654   87.7966   12.8874 C.ar    1  UNL1        0.2809
      5 C          64.0713   89.2244   13.1038 C.ar    1  UNL1        0.0772
      6 C          64.6515   89.3374   14.4824 C.ar    1  UNL1        0.1063
      7 N          64.6041   87.9796   15.1181 N.ar    1  UNL1       -0.1596
      8 N          63.9947   87.0273   14.1323 N.ar    1  UNL1       -0.1573
      9 C          63.6971   85.5591   14.2074 C.2     1  UNL1        0.2752
     10 O          64.0264   84.7897   15.4523 O.2     1  UNL1       -0.2691
     11 C          62.1773   80.4553   13.2628 C.ar    1  UNL1        0.1387
     12 C          63.1126   80.9783   12.2132 C.ar    1  UNL1        0.0366
     13 C          63.4103   82.4465   12.1381 C.ar    1  UNL1       -0.0001
     14 C          62.7725   83.3918   13.1126 C.ar    1  UNL1       -0.0018
     15 C          61.8372   82.8689   14.1622 C.ar    1  UNL1       -0.0001
     16 C          61.5395   81.4007   14.2373 C.ar    1  UNL1        0.0366
     17 C          62.4487   78.0531   12.3113 C.3     1  UNL1        0.2525
     18 O          61.8797   78.9871   13.3378 O.3     1  UNL1       -0.4714
     19 C          63.9231   90.3427   12.1152 C.2     1  UNL1       -0.0198
     20 C          64.8173   91.5439   12.2020 C.2     1  UNL1       -0.0302
     21 C          64.6690   92.6622   11.2133 C.3     1  UNL1        0.0257
     22 C          63.6266   92.5793   10.1378 C.3     1  UNL1        0.0050
     23 C          62.7325   91.3781   10.0510 C.3     1  UNL1        0.0050
     24 C          62.8807   90.2598   11.0397 C.3     1  UNL1        0.0263
     25 C          65.1852   90.5887   15.1145 C.ar    1  UNL1        0.0195
     26 C          66.5827   91.0433   14.8141 C.ar    1  UNL1        0.0016
     27 C          67.1166   92.2946   15.4461 C.ar    1  UNL1        0.0000
     28 C          66.2529   93.0912   16.3785 C.ar    1  UNL1        0.0000
     29 C          64.8554   92.6365   16.6789 C.ar    1  UNL1        0.0000
     30 C          64.3215   91.3853   16.0469 C.ar    1  UNL1        0.0016
     31 N          62.1140   84.9305   10.6228 N.pl3   1  UNL1       -0.1866
     32 H          62.2797   83.9712   10.4759 H       1  UNL1        0.2997
     33 C          61.2346   85.6931    9.6768 C.ar    1  UNL1        0.2214
     34 C          61.1750   85.3040    8.2294 C.ar    1  UNL1        0.0610
     35 C          60.2956   86.0666    7.2832 C.ar    1  UNL1        0.0068
     36 C          59.4756   87.2183    7.7847 C.ar    1  UNL1        0.0209
     37 C          59.5352   87.6073    9.2322 C.ar    1  UNL1        0.1024
     38 N          60.4146   86.8448   10.1782 N.ar    1  UNL1       -0.2076
@<TRIPOS>BOND
     1    17    18    1
     2    18    11    1
     3    11    12   ar
     4    12    13   ar
     5    13    14   ar
     6    14     1    1
     7     1     2    1
     8     2    31    1
     9    31    33    1
    10    33    34   ar
    11    34    35   ar
    12    35    36   ar
    13    36    37   ar
    14    37    38   ar
    15     2     3    2
    16     3     4    1
    17     4     5   ar
    18     5    19    1
    19    19    20    2
    20    20    21    1
    21    21    22    1
    22    22    23    1
    23    23    24    1
    24     5     6   ar
    25     6    25    1
    26    25    26   ar
    27    26    27   ar
    28    27    28   ar
    29    28    29   ar
    30    29    30   ar
    31     6     7   ar
    32     7     8   ar
    33     8     9   am
    34     9    10    2
    35    14    15   ar
    36    15    16   ar
    37    16    11   ar
    38     9     1    1
    39    38    33   ar
    40     8     4   ar
    41    24    19    1
    42    30    25   ar
    43    31    32    1
@<TRIPOS>MOLECULE
*****
 38 43 0 0 0
SMALL
GASTEIGER

@<TRIPOS>ATOM
      1 C          64.7448   89.8878   13.7991 C.3     1  UNL1        0.2088
      2 C          63.8754   90.2592   12.6346 C.2     1  UNL1        0.3171
      3 N          63.1320   89.1944   11.8839 N.2     1  UNL1       -0.0232
      4 C          63.2582   87.7581   12.2977 C.ar    1  UNL1        0.2809
      5 C          62.6507   86.4995   11.7528 C.ar    1  UNL1        0.0772
      6 C          63.1447   85.3503   12.5806 C.ar    1  UNL1        0.1063
      7 N          64.0575   85.8986   13.6370 N.ar    1  UNL1       -0.1596
      8 N          64.1277   87.3867   13.4622 N.ar    1  UNL1       -0.1573
      9 C          64.8710   88.4515   14.2129 C.2     1  UNL1        0.2752
     10 O          65.7405   88.0801   15.3775 O.2     1  UNL1       -0.2691
     11 C          66.9747   93.0824   16.0513 C.ar    1  UNL1        0.1387
     12 C          67.6529   92.3347   14.9418 C.ar    1  UNL1        0.0366
     13 C          66.9096   91.2699   14.1911 C.ar    1  UNL1       -0.0001
     14 C          65.4881   90.9527   14.5498 C.ar    1  UNL1       -0.0018
     15 C          64.8099   91.7004   15.6594 C.ar    1  UNL1       -0.0001
     16 C          65.5532   92.7652   16.4101 C.ar    1  UNL1        0.0366
     17 C          69.0982   94.5450   16.3697 C.3     1  UNL1        0.2525
     18 O          67.7180   94.1472   16.8020 O.3     1  UNL1       -0.4714
     19 C          61.7136   86.4065   10.5852 C.2     1  UNL1       -0.0198
     20 C          60.4003   87.1305   10.6179 C.2     1  UNL1       -0.0302
     21 C          59.4634   87.0374    9.4503 C.3     1  UNL1        0.0257
     22 C          59.8397   86.2204    8.2499 C.3     1  UNL1        0.0050
     23 C          61.1529   85.4964    8.2171 C.3     1  UNL1        0.0050
     24 C          62.0899   85.5895    9.3848 C.3     1  UNL1        0.0263
     25 C          62.7883   83.9063   12.3860 C.ar    1  UNL1        0.0195
     26 C          63.1694   83.2042   11.1164 C.ar    1  UNL1        0.0016
     27 C          62.8131   81.7602   10.9218 C.ar    1  UNL1        0.0000
     28 C          62.0757   81.0182   11.9968 C.ar    1  UNL1        0.0000
     29 C          61.6947   81.7202   13.2664 C.ar    1  UNL1        0.0000
     30 C          62.0510   83.1643   13.4611 C.ar    1  UNL1        0.0016
     31 N          63.7492   91.6955   12.2208 N.pl3   1  UNL1       -0.1866
     32 H          62.8830   92.1566   12.3011 H       1  UNL1        0.2997
     33 C          64.9425   92.4292   11.6846 C.ar    1  UNL1        0.2214
     34 C          65.6548   91.9153   10.4687 C.ar    1  UNL1        0.0610
     35 C          66.8482   92.6490    9.9324 C.ar    1  UNL1        0.0068
     36 C          67.3293   93.8965   10.6121 C.ar    1  UNL1        0.0209
     37 C          66.6169   94.4105   11.8282 C.ar    1  UNL1        0.1024
     38 N          65.4236   93.6768   12.3643 N.ar    1  UNL1       -0.2076
@<TRIPOS>BOND
     1    17    18    1
     2    18    11    1
     3    11    12   ar
     4    12    13   ar
     5    13    14   ar
     6    14     1    1
     7     1     2    1
     8     2    31    1
     9    31    33    1
    10    33    34   ar
    11    34    35   ar
    12    35    36   ar
    13    36    37   ar
    14    37    38   ar
    15     2     3    2
    16     3     4    1
    17     4     5   ar
    18     5    19    1
    19    19    20    2
    20    20    21    1
    21    21    22    1
    22    22    23    1
    23    23    24    1
    24     5     6   ar
    25     6    25    1
    26    25    26   ar
    27    26    27   ar
    28    27    28   ar
    29    28    29   ar
    30    29    30   ar
    31     6     7   ar
    32     7     8   ar
    33     8     9   am
    34     9    10    2
    35    14    15   ar
    36    15    16   ar
    37    16    11   ar
    38     9     1    1
    39    38    33   ar
    40     8     4   ar
    41    24    19    1
    42    30    25   ar
    43    31    32    1
@<TRIPOS>MOLECULE
*****
 38 43 0 0 0
SMALL
GASTEIGER

@<TRIPOS>ATOM
      1 C          62.9173   85.0108   13.2468 C.3     1  UNL1        0.2088
      2 C          62.4118   85.7819   12.0637 C.2     1  UNL1        0.3171
      3 N          62.7688   87.2300   11.9041 N.2     1  UNL1       -0.0232
      4 C          63.6314   87.9070   12.9275 C.ar    1  UNL1        0.2809
      5 C          64.1449   89.3122   13.0362 C.ar    1  UNL1        0.0772
      6 C          64.9679   89.4095   14.2865 C.ar    1  UNL1        0.1063
      7 N          64.9630   88.0645   14.9506 N.ar    1  UNL1       -0.1596
      8 N          64.1371   87.1359   14.1107 N.ar    1  UNL1       -0.1573
      9 C          63.7800   85.6878   14.2703 C.2     1  UNL1        0.2752
     10 O          64.2856   84.9167   15.4535 O.2     1  UNL1       -0.2691
     11 C          61.8462   80.6665   13.7258 C.ar    1  UNL1        0.1387
     12 C          62.6390   81.1165   12.5347 C.ar    1  UNL1        0.0366
     13 C          62.9961   82.5646   12.3750 C.ar    1  UNL1       -0.0001
     14 C          62.5603   83.5626   13.4065 C.ar    1  UNL1       -0.0018
     15 C          61.7674   83.1126   14.5976 C.ar    1  UNL1       -0.0001
     16 C          61.4104   81.6645   14.7573 C.ar    1  UNL1        0.0366
     17 C          62.3695   78.1590   13.2915 C.3     1  UNL1        0.2525
     18 O          61.4892   79.2184   13.8854 O.3     1  UNL1       -0.4714
     19 C          63.8817   90.4247   12.0652 C.2     1  UNL1       -0.0198
     20 C          62.7374   90.3233   11.1006 C.2     1  UNL1       -0.0302
     21 C          62.4742   91.4358   10.1296 C.3     1  UNL1        0.0257
     22 C          63.3553   92.6498   10.1230 C.3     1  UNL1        0.0050
     23 C          64.4996   92.7512   11.0875 C.3     1  UNL1        0.0050
     24 C          64.7628   91.6386   12.0586 C.3     1  UNL1        0.0263
     25 C          65.6721   90.6365   14.7852 C.ar    1  UNL1        0.0195
     26 C          67.0870   90.9103   14.3694 C.ar    1  UNL1        0.0016
     27 C          67.7913   92.1372   14.8681 C.ar    1  UNL1        0.0000
     28 C          67.0805   93.0904   15.7826 C.ar    1  UNL1        0.0000
     29 C          65.6656   92.8165   16.1984 C.ar    1  UNL1        0.0000
     30 C          64.9613   91.5896   15.6998 C.ar    1  UNL1        0.0016
     31 N          61.5491   85.1049   11.0402 N.pl3   1  UNL1       -0.1866
     32 H          60.7338   84.6294   11.3204 H       1  UNL1        0.2997
     33 C          61.9285   85.1524    9.5899 C.ar    1  UNL1        0.2214
     34 C          63.3006   84.7261    9.1592 C.ar    1  UNL1        0.0610
     35 C          63.6801   84.7736    7.7087 C.ar    1  UNL1        0.0068
     36 C          62.6874   85.2473    6.6889 C.ar    1  UNL1        0.0209
     37 C          61.3151   85.6736    7.1196 C.ar    1  UNL1        0.1024
     38 N          60.9357   85.6261    8.5700 N.ar    1  UNL1       -0.2076
@<TRIPOS>BOND
     1    17    18    1
     2    18    11    1
     3    11    12   ar
     4    12    13   ar
     5    13    14   ar
     6    14     1    1
     7     1     2    1
     8     2    31    1
     9    31    33    1
    10    33    34   ar
    11    34    35   ar
    12    35    36   ar
    13    36    37   ar
    14    37    38   ar
    15     2     3    2
    16     3     4    1
    17     4     5   ar
    18     5    19    1
    19    19    20    2
    20    20    21    1
    21    21    22    1
    22    22    23    1
    23    23    24    1
    24     5     6   ar
    25     6    25    1
    26    25    26   ar
    27    26    27   ar
    28    27    28   ar
    29    28    29   ar
    30    29    30   ar
    31     6     7   ar
    32     7     8   ar
    33     8     9   am
    34     9    10    2
    35    14    15   ar
    36    15    16   ar
    37    16    11   ar
    38     9     1    1
    39    38    33   ar
    40     8     4   ar
    41    24    19    1
    42    30    25   ar
    43    31    32    1
