@<TRIPOS>MOLECULE
*****
 34 37 0 0 0
SMALL
GASTEIGER

@<TRIPOS>ATOM
      1 C          65.2857   91.3750   15.2379 C.ar    1  UNL1       -0.0045
      2 C          64.2682   91.3167   16.3385 C.ar    1  UNL1       -0.0026
      3 C          63.5301   90.0396   16.6106 C.ar    1  UNL1        0.0029
      4 C          63.8094   88.8208   15.7821 C.ar    1  UNL1        0.0391
      5 C          64.8269   88.8791   14.6815 C.ar    1  UNL1        0.0029
      6 C          65.5650   90.1562   14.4094 C.ar    1  UNL1       -0.0026
      7 C          63.0712   87.5436   16.0542 C.ar    1  UNL1        0.2033
      8 N          61.9192   87.3755   17.0000 N.ar    1  UNL1       -0.0560
      9 O          61.4914   85.9384   16.9587 O.2     1  UNL1       -0.3370
     10 C          62.3791   85.2183   15.9873 C.ar    1  UNL1        0.2366
     11 N          63.3555   86.2104   15.4283 N.ar    1  UNL1       -0.1907
     12 C          62.3037   83.7618   15.6365 C.3     1  UNL1        0.0880
     13 C          63.4997   83.0673   15.0561 C.3     1  UNL1        0.0098
     14 C          63.5395   82.7388   13.5930 C.3     1  UNL1        0.0005
     15 C          62.7773   81.5582   13.0684 C.3     1  UNL1        0.0000
     16 C          62.8171   81.2297   11.6054 C.3     1  UNL1        0.0000
     17 C          63.6191   82.0818   10.6670 C.3     1  UNL1        0.0000
     18 C          64.3814   83.2623   11.1916 C.3     1  UNL1        0.0000
     19 C          64.3416   83.5908   12.6547 C.3     1  UNL1        0.0000
     20 C          66.0239   92.6522   14.9658 C.3     1  UNL1        0.0941
     21 N          65.8091   93.3817   13.6728 N.am    1  UNL1       -0.3010
     22 C          66.7943   93.2279   12.5523 C.2     1  UNL1        0.2394
     23 O          67.9944   92.3446   12.7247 O.2     1  UNL1       -0.2736
     24 H          65.0215   93.9614   13.5597 H       1  UNL1        0.1497
     25 C          66.5796   93.9574   11.2594 C.3     1  UNL1        0.1586
     26 N          65.4779   94.9334   10.9701 N.3     1  UNL1       -0.2893
     27 C          65.6462   95.4182    9.5607 C.3     1  UNL1        0.0715
     28 C          66.8519   94.7418    8.9787 C.3     1  UNL1        0.0482
     29 C          67.4288   93.8390   10.0286 C.3     1  UNL1        0.1350
     30 O          68.6419   92.9703    9.8746 O.3     1  UNL1       -0.3825
     31 H          65.5346   95.7208   11.6161 H       1  UNL1        0.1237
     32 H          69.0060   93.0786    8.9821 H       1  UNL1        0.2104
     33 C          68.2835   92.5080   16.2400 C.3     1  UNL1        0.0021
     34 C          66.9768   93.1998   15.9866 C.3     1  UNL1        0.0241
@<TRIPOS>BOND
     1    33    34    1
     2    20    34    1
     3    20    21    1
     4    21    22   am
     5    22    23    2
     6    25    22    1
     7    25    26    1
     8    26    27    1
     9    27    28    1
    10    28    29    1
    11    29    30    1
    12    20     1    1
    13     1     2   ar
    14     2     3   ar
    15     3     4   ar
    16     4     7    1
    17     7     8   ar
    18     8     9   ar
    19     9    10   ar
    20    10    12    1
    21    12    13    1
    22    13    14    1
    23    14    15    1
    24    15    16    1
    25    16    17    1
    26    17    18    1
    27    18    19    1
    28    10    11   ar
    29     4     5   ar
    30     5     6   ar
    31    29    25    1
    32     6     1   ar
    33    11     7   ar
    34    19    14    1
    35    21    24    1
    36    26    31    1
    37    30    32    1
@<TRIPOS>MOLECULE
*****
 34 37 0 0 0
SMALL
GASTEIGER

@<TRIPOS>ATOM
      1 C          62.8249   86.8737   11.9179 C.ar    1  UNL1       -0.0045
      2 C          63.5122   86.5750   13.2173 C.ar    1  UNL1       -0.0026
      3 C          63.9784   87.6988   14.0946 C.ar    1  UNL1        0.0029
      4 C          63.7574   89.1211   13.6727 C.ar    1  UNL1        0.0391
      5 C          63.0701   89.4197   12.3733 C.ar    1  UNL1        0.0029
      6 C          62.6038   88.2960   11.4959 C.ar    1  UNL1       -0.0026
      7 C          64.2237   90.2448   14.5501 C.ar    1  UNL1        0.2033
      8 N          63.3925   90.9767   15.5618 N.ar    1  UNL1       -0.0560
      9 O          64.2580   92.0181   16.2069 O.2     1  UNL1       -0.3370
     10 C          65.6243   91.9299   15.5938 C.ar    1  UNL1        0.2366
     11 N          65.6030   90.8340   14.5699 N.ar    1  UNL1       -0.1907
     12 C          66.8045   92.7872   15.9434 C.3     1  UNL1        0.0880
     13 C          67.8282   93.1164   14.8977 C.3     1  UNL1        0.0098
     14 C          67.4730   93.0197   13.4435 C.3     1  UNL1        0.0005
     15 C          68.1814   92.0340   12.5624 C.3     1  UNL1        0.0000
     16 C          67.8261   91.9373   11.1083 C.3     1  UNL1        0.0000
     17 C          66.7624   92.8263   10.5354 C.3     1  UNL1        0.0000
     18 C          66.0540   93.8120   11.4166 C.3     1  UNL1        0.0000
     19 C          66.4093   93.9087   12.8707 C.3     1  UNL1        0.0000
     20 C          62.3586   85.7499   11.0404 C.3     1  UNL1        0.0941
     21 N          62.0477   84.4102   11.6393 N.am    1  UNL1       -0.3010
     22 C          63.1469   83.4134   11.8583 C.2     1  UNL1        0.2394
     23 O          64.5570   83.7562   11.4786 O.2     1  UNL1       -0.2736
     24 H          61.1222   84.1852   11.8885 H       1  UNL1        0.1497
     25 C          62.8360   82.0737   12.4572 C.3     1  UNL1        0.1586
     26 N          62.8708   80.7573   11.7388 N.3     1  UNL1       -0.2893
     27 C          62.4921   79.6852   12.7171 C.3     1  UNL1        0.0715
     28 C          62.2232   80.3389   14.0401 C.3     1  UNL1        0.0482
     29 C          62.4357   81.8151   13.8794 C.3     1  UNL1        0.1350
     30 O          62.2760   82.8508   14.9527 O.3     1  UNL1       -0.3825
     31 H          63.8099   80.5831   11.3808 H       1  UNL1        0.1237
     32 H          62.0107   82.4204   15.7804 H       1  UNL1        0.2104
     33 C          63.1097   85.2561    8.6028 C.3     1  UNL1        0.0021
     34 C          62.2031   85.9659    9.5643 C.3     1  UNL1        0.0241
@<TRIPOS>BOND
     1    33    34    1
     2    20    34    1
     3    20    21    1
     4    21    22   am
     5    22    23    2
     6    25    22    1
     7    25    26    1
     8    26    27    1
     9    27    28    1
    10    28    29    1
    11    29    30    1
    12    20     1    1
    13     1     2   ar
    14     2     3   ar
    15     3     4   ar
    16     4     7    1
    17     7     8   ar
    18     8     9   ar
    19     9    10   ar
    20    10    12    1
    21    12    13    1
    22    13    14    1
    23    14    15    1
    24    15    16    1
    25    16    17    1
    26    17    18    1
    27    18    19    1
    28    10    11   ar
    29     4     5   ar
    30     5     6   ar
    31    29    25    1
    32     6     1   ar
    33    11     7   ar
    34    19    14    1
    35    21    24    1
    36    26    31    1
    37    30    32    1
@<TRIPOS>MOLECULE
*****
 34 37 0 0 0
SMALL
GASTEIGER

@<TRIPOS>ATOM
      1 C          62.8319   87.0439   11.9272 C.ar    1  UNL1       -0.0045
      2 C          63.5402   86.7173   13.2084 C.ar    1  UNL1       -0.0026
      3 C          64.0156   87.8218   14.1051 C.ar    1  UNL1        0.0029
      4 C          63.7827   89.2528   13.7206 C.ar    1  UNL1        0.0391
      5 C          63.0743   89.5794   12.4394 C.ar    1  UNL1        0.0029
      6 C          62.5989   88.4750   11.5427 C.ar    1  UNL1       -0.0026
      7 C          64.2582   90.3573   14.6173 C.ar    1  UNL1        0.2033
      8 N          63.4283   91.0902   15.6294 N.ar    1  UNL1       -0.0560
      9 O          64.3041   92.1087   16.2971 O.2     1  UNL1       -0.3370
     10 C          65.6753   92.0051   15.6976 C.ar    1  UNL1        0.2366
     11 N          65.6468   90.9228   14.6595 N.ar    1  UNL1       -0.1907
     12 C          66.8659   92.8378   16.0707 C.3     1  UNL1        0.0880
     13 C          67.9074   93.1612   15.0409 C.3     1  UNL1        0.0098
     14 C          67.5966   92.9972   13.5826 C.3     1  UNL1        0.0005
     15 C          66.5355   93.8422   12.9423 C.3     1  UNL1        0.0000
     16 C          66.2247   93.6782   11.4841 C.3     1  UNL1        0.0000
     17 C          66.9750   92.6692   10.6662 C.3     1  UNL1        0.0000
     18 C          68.0360   91.8242   11.3065 C.3     1  UNL1        0.0000
     19 C          68.3469   91.9882   12.7648 C.3     1  UNL1        0.0000
     20 C          62.3564   85.9394   11.0304 C.3     1  UNL1        0.0941
     21 N          62.0306   84.5934   11.6065 N.am    1  UNL1       -0.3010
     22 C          63.1112   83.5661   11.7702 C.2     1  UNL1        0.2394
     23 O          64.5178   83.8849   11.3578 O.2     1  UNL1       -0.2736
     24 H          61.1074   84.3841   11.8772 H       1  UNL1        0.1497
     25 C          62.7854   82.2200   12.3463 C.3     1  UNL1        0.1586
     26 N          62.3356   81.9476   13.7511 N.3     1  UNL1       -0.2893
     27 C          62.1244   80.4692   13.8918 C.3     1  UNL1        0.0715
     28 C          62.4437   79.8279   12.5740 C.3     1  UNL1        0.0482
     29 C          62.8523   80.9100   11.6188 C.3     1  UNL1        0.1350
     30 O          63.2567   80.7160   10.1875 O.3     1  UNL1       -0.3825
     31 H          61.4625   82.4412   13.9368 H       1  UNL1        0.1237
     32 H          63.2151   79.7728    9.9647 H       1  UNL1        0.2104
     33 C          63.0035   85.3693    8.5796 C.3     1  UNL1        0.0021
     34 C          62.2068   86.1811    9.5576 C.3     1  UNL1        0.0241
@<TRIPOS>BOND
     1    33    34    1
     2    20    34    1
     3    20    21    1
     4    21    22   am
     5    22    23    2
     6    25    22    1
     7    25    26    1
     8    26    27    1
     9    27    28    1
    10    28    29    1
    11    29    30    1
    12    20     1    1
    13     1     2   ar
    14     2     3   ar
    15     3     4   ar
    16     4     7    1
    17     7     8   ar
    18     8     9   ar
    19     9    10   ar
    20    10    12    1
    21    12    13    1
    22    13    14    1
    23    14    15    1
    24    15    16    1
    25    16    17    1
    26    17    18    1
    27    18    19    1
    28    10    11   ar
    29     4     5   ar
    30     5     6   ar
    31    29    25    1
    32     6     1   ar
    33    11     7   ar
    34    19    14    1
    35    21    24    1
    36    26    31    1
    37    30    32    1
@<TRIPOS>MOLECULE
*****
 34 37 0 0 0
SMALL
GASTEIGER

@<TRIPOS>ATOM
      1 C          61.9820   88.5383   10.3276 C.ar    1  UNL1       -0.0045
      2 C          62.3848   87.9504   11.6475 C.ar    1  UNL1       -0.0026
      3 C          62.7062   86.4890   11.7508 C.ar    1  UNL1        0.0029
      4 C          62.6248   85.6153   10.5342 C.ar    1  UNL1        0.0391
      5 C          62.2220   86.2032    9.2143 C.ar    1  UNL1        0.0029
      6 C          61.9006   87.6646    9.1110 C.ar    1  UNL1       -0.0026
      7 C          62.9462   84.1538   10.6375 C.ar    1  UNL1        0.2033
      8 N          63.6805   83.3380    9.6150 N.ar    1  UNL1       -0.0560
      9 O          63.7779   81.9315   10.1269 O.2     1  UNL1       -0.3370
     10 C          63.1039   81.8780   11.4660 C.ar    1  UNL1        0.2366
     11 N          62.5899   83.2514   11.7815 N.ar    1  UNL1       -0.1907
     12 C          62.9678   80.6641   12.3366 C.3     1  UNL1        0.0880
     13 C          63.0038   80.8040   13.8296 C.3     1  UNL1        0.0098
     14 C          63.1564   82.1602   14.4523 C.3     1  UNL1        0.0005
     15 C          61.9524   82.8834   14.9789 C.3     1  UNL1        0.0000
     16 C          62.1049   84.2394   15.6016 C.3     1  UNL1        0.0000
     17 C          63.4615   84.8723   15.6976 C.3     1  UNL1        0.0000
     18 C          64.6655   84.1491   15.1710 C.3     1  UNL1        0.0000
     19 C          64.5129   82.7930   14.5483 C.3     1  UNL1        0.0000
     20 C          61.6605   89.9998   10.2243 C.3     1  UNL1        0.0941
     21 N          62.7687   91.0077   10.1458 N.am    1  UNL1       -0.3010
     22 C          63.5382   91.3739   11.3801 C.2     1  UNL1        0.2394
     23 O          63.1997   90.7323   12.6930 O.2     1  UNL1       -0.2736
     24 H          62.9909   91.4289    9.2841 H       1  UNL1        0.1497
     25 C          64.6464   92.3818   11.3016 C.3     1  UNL1        0.1586
     26 N          65.1115   93.0860   10.0615 N.3     1  UNL1       -0.2893
     27 C          66.2366   94.0019   10.4429 C.3     1  UNL1        0.0715
     28 C          66.4668   93.8638   11.9187 C.3     1  UNL1        0.0482
     29 C          65.4840   92.8625   12.4494 C.3     1  UNL1        0.1350
     30 O          65.3605   92.4197   13.8772 O.3     1  UNL1       -0.3825
     31 H          64.3446   93.6274    9.6626 H       1  UNL1        0.1237
     32 H          66.0198   92.8826   14.4175 H       1  UNL1        0.2104
     33 C          59.4481   90.5363   11.4763 C.3     1  UNL1        0.0021
     34 C          60.2310   90.4534   10.1994 C.3     1  UNL1        0.0241
@<TRIPOS>BOND
     1    33    34    1
     2    20    34    1
     3    20    21    1
     4    21    22   am
     5    22    23    2
     6    25    22    1
     7    25    26    1
     8    26    27    1
     9    27    28    1
    10    28    29    1
    11    29    30    1
    12    20     1    1
    13     1     2   ar
    14     2     3   ar
    15     3     4   ar
    16     4     7    1
    17     7     8   ar
    18     8     9   ar
    19     9    10   ar
    20    10    12    1
    21    12    13    1
    22    13    14    1
    23    14    15    1
    24    15    16    1
    25    16    17    1
    26    17    18    1
    27    18    19    1
    28    10    11   ar
    29     4     5   ar
    30     5     6   ar
    31    29    25    1
    32     6     1   ar
    33    11     7   ar
    34    19    14    1
    35    21    24    1
    36    26    31    1
    37    30    32    1
@<TRIPOS>MOLECULE
*****
 34 37 0 0 0
SMALL
GASTEIGER

@<TRIPOS>ATOM
      1 C          63.2003   88.7333   12.6929 C.ar    1  UNL1       -0.0045
      2 C          62.6299   89.9817   12.0880 C.ar    1  UNL1       -0.0026
      3 C          61.7329   89.8919   10.8892 C.ar    1  UNL1        0.0029
      4 C          61.4063   88.5538   10.2953 C.ar    1  UNL1        0.0391
      5 C          61.9767   87.3054   10.9002 C.ar    1  UNL1        0.0029
      6 C          62.8738   87.3951   12.0991 C.ar    1  UNL1       -0.0026
      7 C          60.5092   88.4641    9.0964 C.ar    1  UNL1        0.2033
      8 N          59.6635   87.2856    8.7142 N.ar    1  UNL1       -0.0560
      9 O          58.9320   87.6302    7.4509 O.2     1  UNL1       -0.3370
     10 C          59.3256   89.0217    7.0523 C.ar    1  UNL1        0.2366
     11 N          60.3003   89.5371    8.0692 N.ar    1  UNL1       -0.1907
     12 C          58.8312   89.7671    5.8480 C.3     1  UNL1        0.0880
     13 C          59.1333   91.2282    5.6941 C.3     1  UNL1        0.0098
     14 C          60.0048   91.6993    4.5678 C.3     1  UNL1        0.0005
     15 C          59.4564   92.6439    3.5397 C.3     1  UNL1        0.0000
     16 C          60.3279   93.1150    2.4135 C.3     1  UNL1        0.0000
     17 C          61.7478   92.6415    2.3152 C.3     1  UNL1        0.0000
     18 C          62.2961   91.6969    3.3433 C.3     1  UNL1        0.0000
     19 C          61.4246   91.2258    4.4696 C.3     1  UNL1        0.0000
     20 C          64.0974   88.8230   13.8918 C.3     1  UNL1        0.0941
     21 N          65.1259   89.9114   13.9792 N.am    1  UNL1       -0.3010
     22 C          64.9000   91.0857   14.8847 C.2     1  UNL1        0.2394
     23 O          63.6456   91.1716   15.7029 O.2     1  UNL1       -0.2736
     24 H          65.9491   89.8550   13.4423 H       1  UNL1        0.1497
     25 C          65.9284   92.1742   14.9721 C.3     1  UNL1        0.1586
     26 N          66.8812   92.3977   16.1089 N.3     1  UNL1       -0.2893
     27 C          67.7263   93.5919   15.7774 C.3     1  UNL1        0.0715
     28 C          67.2958   94.1063   14.4358 C.3     1  UNL1        0.0482
     29 C          66.1847   93.2301   13.9381 C.3     1  UNL1        0.1350
     30 O          65.4575   93.3831   12.6351 O.3     1  UNL1       -0.3825
     31 H          67.4743   91.5768   16.2300 H       1  UNL1        0.1237
     32 H          65.8160   94.1441   12.1521 H       1  UNL1        0.2104
     33 C          64.6601   86.4980   14.9058 C.3     1  UNL1        0.0021
     34 C          63.9661   87.8243   15.0033 C.3     1  UNL1        0.0241
@<TRIPOS>BOND
     1    33    34    1
     2    20    34    1
     3    20    21    1
     4    21    22   am
     5    22    23    2
     6    25    22    1
     7    25    26    1
     8    26    27    1
     9    27    28    1
    10    28    29    1
    11    29    30    1
    12    20     1    1
    13     1     2   ar
    14     2     3   ar
    15     3     4   ar
    16     4     7    1
    17     7     8   ar
    18     8     9   ar
    19     9    10   ar
    20    10    12    1
    21    12    13    1
    22    13    14    1
    23    14    15    1
    24    15    16    1
    25    16    17    1
    26    17    18    1
    27    18    19    1
    28    10    11   ar
    29     4     5   ar
    30     5     6   ar
    31    29    25    1
    32     6     1   ar
    33    11     7   ar
    34    19    14    1
    35    21    24    1
    36    26    31    1
    37    30    32    1
@<TRIPOS>MOLECULE
*****
 34 37 0 0 0
SMALL
GASTEIGER

@<TRIPOS>ATOM
      1 C          63.4660   87.0732   14.7638 C.ar    1  UNL1       -0.0045
      2 C          63.9148   88.4061   15.2852 C.ar    1  UNL1       -0.0026
      3 C          64.0616   89.5674   14.3473 C.ar    1  UNL1        0.0029
      4 C          63.7597   89.3959   12.8881 C.ar    1  UNL1        0.0391
      5 C          63.3109   88.0630   12.3667 C.ar    1  UNL1        0.0029
      6 C          63.1641   86.9016   13.3045 C.ar    1  UNL1       -0.0026
      7 C          63.9066   90.5573   11.9502 C.ar    1  UNL1        0.2033
      8 N          63.1179   90.7814   10.6940 N.ar    1  UNL1       -0.0560
      9 O          63.5918   92.0611   10.0713 O.2     1  UNL1       -0.3370
     10 C          64.6733   92.6280   10.9426 C.ar    1  UNL1        0.2366
     11 N          64.8678   91.6986   12.1038 N.ar    1  UNL1       -0.1907
     12 C          65.4278   93.9007   10.6960 C.3     1  UNL1        0.0880
     13 C          66.2694   94.4968   11.7852 C.3     1  UNL1        0.0098
     14 C          66.8136   93.6226   12.8759 C.3     1  UNL1        0.0005
     15 C          66.4847   93.9191   14.3091 C.3     1  UNL1        0.0000
     16 C          67.0290   93.0450   15.3997 C.3     1  UNL1        0.0000
     17 C          67.9022   91.8744   15.0573 C.3     1  UNL1        0.0000
     18 C          68.2311   91.5780   13.6241 C.3     1  UNL1        0.0000
     19 C          67.6868   92.4521   12.5334 C.3     1  UNL1        0.0000
     20 C          63.3191   85.9117   15.7016 C.3     1  UNL1        0.0941
     21 N          62.8186   84.5934   15.1902 N.am    1  UNL1       -0.3010
     22 C          63.7395   83.6852   14.4305 C.2     1  UNL1        0.2394
     23 O          65.1608   84.0953   14.1821 O.2     1  UNL1       -0.2736
     24 H          61.8858   84.3242   15.3532 H       1  UNL1        0.1497
     25 C          63.2390   82.3669   13.9190 C.3     1  UNL1        0.1586
     26 N          62.1828   81.5161   14.5597 N.3     1  UNL1       -0.2893
     27 C          61.9979   80.2913   13.7137 C.3     1  UNL1        0.0715
     28 C          62.9399   80.3851   12.5502 C.3     1  UNL1        0.0482
     29 C          63.7069   81.6679   12.6770 C.3     1  UNL1        0.1350
     30 O          64.7574   82.1645   11.7284 O.3     1  UNL1       -0.3825
     31 H          61.3063   82.0349   14.6139 H       1  UNL1        0.1237
     32 H          64.8711   81.5248   11.0082 H       1  UNL1        0.2104
     33 C          62.6547   86.5955   18.1185 C.3     1  UNL1        0.0021
     34 C          63.6727   86.0686   17.1509 C.3     1  UNL1        0.0241
@<TRIPOS>BOND
     1    33    34    1
     2    20    34    1
     3    20    21    1
     4    21    22   am
     5    22    23    2
     6    25    22    1
     7    25    26    1
     8    26    27    1
     9    27    28    1
    10    28    29    1
    11    29    30    1
    12    20     1    1
    13     1     2   ar
    14     2     3   ar
    15     3     4   ar
    16     4     7    1
    17     7     8   ar
    18     8     9   ar
    19     9    10   ar
    20    10    12    1
    21    12    13    1
    22    13    14    1
    23    14    15    1
    24    15    16    1
    25    16    17    1
    26    17    18    1
    27    18    19    1
    28    10    11   ar
    29     4     5   ar
    30     5     6   ar
    31    29    25    1
    32     6     1   ar
    33    11     7   ar
    34    19    14    1
    35    21    24    1
    36    26    31    1
    37    30    32    1
@<TRIPOS>MOLECULE
*****
 34 37 0 0 0
SMALL
GASTEIGER

@<TRIPOS>ATOM
      1 C          62.0867   86.9330   11.3550 C.ar    1  UNL1       -0.0045
      2 C          61.3111   86.0605   10.4132 C.ar    1  UNL1       -0.0026
      3 C          60.5679   86.6731    9.2633 C.ar    1  UNL1        0.0029
      4 C          60.6004   88.1583    9.0552 C.ar    1  UNL1        0.0391
      5 C          61.3761   89.0308    9.9970 C.ar    1  UNL1        0.0029
      6 C          62.1192   88.4181   11.1469 C.ar    1  UNL1       -0.0026
      7 C          59.8571   88.7709    7.9052 C.ar    1  UNL1        0.2033
      8 N          58.4850   88.3862    7.4371 N.ar    1  UNL1       -0.0560
      9 O          58.1353   89.2533    6.2641 O.2     1  UNL1       -0.3370
     10 C          59.2915   90.1739    6.0073 C.ar    1  UNL1        0.2366
     11 N          60.3556   89.8757    7.0215 N.ar    1  UNL1       -0.1907
     12 C          59.3698   91.2106    4.9260 C.3     1  UNL1        0.0880
     13 C          60.6999   91.7740    4.5221 C.3     1  UNL1        0.0098
     14 C          60.8842   92.3520    3.1502 C.3     1  UNL1        0.0005
     15 C          59.7098   92.9251    2.4138 C.3     1  UNL1        0.0000
     16 C          59.8941   93.5031    1.0420 C.3     1  UNL1        0.0000
     17 C          61.2529   93.5080    0.4066 C.3     1  UNL1        0.0000
     18 C          62.4273   92.9349    1.1430 C.3     1  UNL1        0.0000
     19 C          62.2429   92.3569    2.5148 C.3     1  UNL1        0.0000
     20 C          62.8300   86.3203   12.5049 C.3     1  UNL1        0.0941
     21 N          62.5323   84.9115   12.9251 N.am    1  UNL1       -0.3010
     22 C          63.2156   83.7646   12.2414 C.2     1  UNL1        0.2394
     23 O          64.1968   84.0265   11.1373 O.2     1  UNL1       -0.2736
     24 H          61.8883   84.7396   13.6497 H       1  UNL1        0.1497
     25 C          62.9179   82.3558   12.6615 C.3     1  UNL1        0.1586
     26 N          62.8628   81.1594   11.7585 N.3     1  UNL1       -0.2893
     27 C          62.5338   79.9602   12.5974 C.3     1  UNL1        0.0715
     28 C          62.3856   80.4154   14.0189 C.3     1  UNL1        0.0482
     29 C          62.6230   81.8960   14.0585 C.3     1  UNL1        0.1350
     30 O          62.5741   82.7643   15.2807 O.3     1  UNL1       -0.3825
     31 H          63.7663   81.0267   11.3042 H       1  UNL1        0.1237
     32 H          62.3630   82.2204   16.0556 H       1  UNL1        0.2104
     33 C          64.3498   86.6673   14.5834 C.3     1  UNL1        0.0021
     34 C          63.8709   87.1165   13.2347 C.3     1  UNL1        0.0241
@<TRIPOS>BOND
     1    33    34    1
     2    20    34    1
     3    20    21    1
     4    21    22   am
     5    22    23    2
     6    25    22    1
     7    25    26    1
     8    26    27    1
     9    27    28    1
    10    28    29    1
    11    29    30    1
    12    20     1    1
    13     1     2   ar
    14     2     3   ar
    15     3     4   ar
    16     4     7    1
    17     7     8   ar
    18     8     9   ar
    19     9    10   ar
    20    10    12    1
    21    12    13    1
    22    13    14    1
    23    14    15    1
    24    15    16    1
    25    16    17    1
    26    17    18    1
    27    18    19    1
    28    10    11   ar
    29     4     5   ar
    30     5     6   ar
    31    29    25    1
    32     6     1   ar
    33    11     7   ar
    34    19    14    1
    35    21    24    1
    36    26    31    1
    37    30    32    1
@<TRIPOS>MOLECULE
*****
 34 37 0 0 0
SMALL
GASTEIGER

@<TRIPOS>ATOM
      1 C          63.6725   87.2006   14.4922 C.ar    1  UNL1       -0.0045
      2 C          64.4388   88.2335   15.2641 C.ar    1  UNL1       -0.0026
      3 C          64.7647   89.5538   14.6312 C.ar    1  UNL1        0.0029
      4 C          64.3242   89.8412   13.2264 C.ar    1  UNL1        0.0391
      5 C          63.5579   88.8083   12.4545 C.ar    1  UNL1        0.0029
      6 C          63.2320   87.4880   13.0874 C.ar    1  UNL1       -0.0026
      7 C          64.6502   91.1615   12.5935 C.ar    1  UNL1        0.2033
      8 N          64.1360   91.6580   11.2747 N.ar    1  UNL1       -0.0560
      9 O          64.7155   93.0205   11.0344 O.2     1  UNL1       -0.3370
     10 C          65.5878   93.3661   12.2047 C.ar    1  UNL1        0.2366
     11 N          65.5474   92.2172   13.1683 N.ar    1  UNL1       -0.1907
     12 C          66.3642   94.6374   12.3806 C.3     1  UNL1        0.0880
     13 C          65.9962   95.8567   11.5882 C.3     1  UNL1        0.0098
     14 C          66.1780   95.8666   10.0992 C.3     1  UNL1        0.0005
     15 C          67.1256   94.9000    9.4529 C.3     1  UNL1        0.0000
     16 C          67.3073   94.9099    7.9641 C.3     1  UNL1        0.0000
     17 C          66.5414   95.8863    7.1215 C.3     1  UNL1        0.0000
     18 C          65.5937   96.8528    7.7678 C.3     1  UNL1        0.0000
     19 C          65.4120   96.8429    9.2567 C.3     1  UNL1        0.0000
     20 C          63.3465   85.8802   15.1251 C.3     1  UNL1        0.0941
     21 N          62.9554   84.7136   14.2672 N.am    1  UNL1       -0.3010
     22 C          63.5155   83.3517   14.5525 C.2     1  UNL1        0.2394
     23 O          64.4669   83.1564   15.6957 O.2     1  UNL1       -0.2736
     24 H          62.3310   84.8417   13.5170 H       1  UNL1        0.1497
     25 C          63.1243   82.1850   13.6947 C.3     1  UNL1        0.1586
     26 N          62.8127   80.7999   14.1788 N.3     1  UNL1       -0.2893
     27 C          62.4718   79.9575   12.9854 C.3     1  UNL1        0.0715
     28 C          62.5729   80.8219   11.7637 C.3     1  UNL1        0.0482
     29 C          62.9761   82.1986   12.2021 C.3     1  UNL1        0.1350
     30 O          63.1931   83.3812   11.3053 O.3     1  UNL1       -0.3825
     31 H          62.0204   80.8277   14.8206 H       1  UNL1        0.1237
     32 H          63.0320   83.1225   10.3844 H       1  UNL1        0.2104
     33 C          62.5236   86.5562   17.4949 C.3     1  UNL1        0.0021
     34 C          63.4118   85.7266   16.6157 C.3     1  UNL1        0.0241
@<TRIPOS>BOND
     1    33    34    1
     2    20    34    1
     3    20    21    1
     4    21    22   am
     5    22    23    2
     6    25    22    1
     7    25    26    1
     8    26    27    1
     9    27    28    1
    10    28    29    1
    11    29    30    1
    12    20     1    1
    13     1     2   ar
    14     2     3   ar
    15     3     4   ar
    16     4     7    1
    17     7     8   ar
    18     8     9   ar
    19     9    10   ar
    20    10    12    1
    21    12    13    1
    22    13    14    1
    23    14    15    1
    24    15    16    1
    25    16    17    1
    26    17    18    1
    27    18    19    1
    28    10    11   ar
    29     4     5   ar
    30     5     6   ar
    31    29    25    1
    32     6     1   ar
    33    11     7   ar
    34    19    14    1
    35    21    24    1
    36    26    31    1
    37    30    32    1
@<TRIPOS>MOLECULE
*****
 34 37 0 0 0
SMALL
GASTEIGER

@<TRIPOS>ATOM
      1 C          45.0154   77.5187   19.5844 C.ar    1  UNL1       -0.0045
      2 C          44.7849   76.9512   18.2152 C.ar    1  UNL1       -0.0026
      3 C          45.1873   75.5385   17.9115 C.ar    1  UNL1        0.0029
      4 C          45.8202   74.6933   18.9770 C.ar    1  UNL1        0.0391
      5 C          46.0506   75.2609   20.3462 C.ar    1  UNL1        0.0029
      6 C          45.6482   76.6736   20.6499 C.ar    1  UNL1       -0.0026
      7 C          46.2226   73.2806   18.6732 C.ar    1  UNL1        0.2033
      8 N          47.3047   72.5042   19.3635 N.ar    1  UNL1       -0.0560
      9 O          47.3645   71.1400   18.7428 O.2     1  UNL1       -0.3370
     10 C          46.3193   71.0732   17.6689 C.ar    1  UNL1        0.2366
     11 N          45.6136   72.3961   17.6259 N.ar    1  UNL1       -0.1907
     12 C          46.0305   69.8910   16.7920 C.3     1  UNL1        0.0880
     13 C          46.6220   69.8159   15.4156 C.3     1  UNL1        0.0098
     14 C          45.7261   69.6737   14.2209 C.3     1  UNL1        0.0005
     15 C          46.0232   68.6356   13.1799 C.3     1  UNL1        0.0000
     16 C          45.1273   68.4935   11.9853 C.3     1  UNL1        0.0000
     17 C          43.9342   69.3895   11.8318 C.3     1  UNL1        0.0000
     18 C          43.6371   70.4277   12.8729 C.3     1  UNL1        0.0000
     19 C          44.5330   70.5698   14.0675 C.3     1  UNL1        0.0000
     20 C          44.6129   78.9315   19.8882 C.3     1  UNL1        0.0941
     21 N          44.2363   79.8605   18.7723 N.am    1  UNL1       -0.3010
     22 C          45.2961   80.6534   18.0666 C.2     1  UNL1        0.2394
     23 O          46.7325   80.5175   18.4767 O.2     1  UNL1       -0.2736
     24 H          43.2936   79.9497   18.5031 H       1  UNL1        0.1497
     25 C          44.9195   81.5824   16.9507 C.3     1  UNL1        0.1586
     26 N          43.8172   82.5992   16.9840 N.3     1  UNL1       -0.2893
     27 C          43.7955   83.3029   15.6594 C.3     1  UNL1        0.0715
     28 C          44.8843   82.7210   14.8075 C.3     1  UNL1        0.0482
     29 C          45.5790   81.6577   15.6056 C.3     1  UNL1        0.1350
     30 O          46.7310   80.8172   15.1401 O.3     1  UNL1       -0.3825
     31 H          43.9896   83.2723   17.7307 H       1  UNL1        0.1237
     32 H          46.9660   81.0651   14.2323 H       1  UNL1        0.2104
     33 C          45.4074   80.6051   21.7097 C.3     1  UNL1        0.0021
     34 C          44.5871   79.4153   21.3077 C.3     1  UNL1        0.0241
@<TRIPOS>BOND
     1    33    34    1
     2    20    34    1
     3    20    21    1
     4    21    22   am
     5    22    23    2
     6    25    22    1
     7    25    26    1
     8    26    27    1
     9    27    28    1
    10    28    29    1
    11    29    30    1
    12    20     1    1
    13     1     2   ar
    14     2     3   ar
    15     3     4   ar
    16     4     7    1
    17     7     8   ar
    18     8     9   ar
    19     9    10   ar
    20    10    12    1
    21    12    13    1
    22    13    14    1
    23    14    15    1
    24    15    16    1
    25    16    17    1
    26    17    18    1
    27    18    19    1
    28    10    11   ar
    29     4     5   ar
    30     5     6   ar
    31    29    25    1
    32     6     1   ar
    33    11     7   ar
    34    19    14    1
    35    21    24    1
    36    26    31    1
    37    30    32    1
