@<TRIPOS>MOLECULE
*****
 34 39 0 0 0
SMALL
GASTEIGER

@<TRIPOS>ATOM
      1 N          59.5445   91.0387    5.2214 N.3     1  UNL1       -0.2666
      2 C          58.9216   92.0576    4.3137 C.3     1  UNL1        0.0939
      3 C          59.7357   92.6875    3.2227 C.3     1  UNL1        0.1095
      4 N          61.1729   92.2986    3.0395 N.pl3   1  UNL1       -0.2904
      5 C          61.7958   91.2798    3.9472 C.3     1  UNL1        0.1095
      6 C          60.9816   90.6499    5.0382 C.3     1  UNL1        0.0939
      7 C          61.9871   92.9286    1.9485 C.ar    1  UNL1        0.1317
      8 C          63.3084   93.5622    2.2692 C.ar    1  UNL1        0.0343
      9 C          64.1225   94.1922    1.1783 C.ar    1  UNL1        0.0044
     10 C          63.6154   94.1886   -0.2335 C.ar    1  UNL1        0.0185
     11 C          64.4296   94.8186   -1.3244 C.ar    1  UNL1        0.0118
     12 C          63.9226   94.8150   -2.7361 C.ar    1  UNL1        0.0685
     13 C          62.6013   94.1814   -3.0569 C.ar    1  UNL1        0.0118
     14 C          61.7871   93.5514   -1.9659 C.ar    1  UNL1        0.0198
     15 C          62.2942   93.5550   -0.5541 C.ar    1  UNL1        0.0827
     16 N          61.4800   92.9250    0.5368 N.ar    1  UNL1       -0.2307
     17 C          64.7367   95.4449   -3.8271 C.1     1  UNL1        0.1004
     18 N          65.5509   96.0749   -4.9181 N.1     1  UNL1       -0.1908
     19 C          58.7303   90.4087    6.3124 C.3     1  UNL1        0.1202
     20 C          64.3610   90.1163   13.7930 C.3     1  UNL1        0.0521
     21 C          63.4750   89.7458   12.6408 C.ar    1  UNL1        0.0593
     22 C          62.8747   90.8183   11.7811 C.ar    1  UNL1        0.0148
     23 C          61.9887   90.4478   10.6289 C.ar    1  UNL1        0.0058
     24 C          61.7029   89.0046   10.3364 C.ar    1  UNL1        0.0547
     25 C          60.8169   88.6340    9.1841 C.ar    1  UNL1        0.1736
     26 C          60.5312   87.1909    8.8916 C.ar    1  UNL1        0.1725
     27 C          61.1314   86.1182    9.7514 C.ar    1  UNL1        0.0416
     28 C          62.0175   86.4888   10.9036 C.ar    1  UNL1        0.0224
     29 C          62.3032   87.9320   11.1961 C.ar    1  UNL1        0.0840
     30 N          63.1892   88.3026   12.3483 N.ar    1  UNL1       -0.2496
     31 O          59.6451   86.8203    7.7394 O.3     1  UNL1       -0.4685
     32 C          59.0449   87.8929    6.8797 C.3     1  UNL1        0.2501
     33 C          59.3306   89.3360    7.1722 C.3     1  UNL1        0.2252
     34 O          60.2166   89.7066    8.3244 O.3     1  UNL1       -0.4708
@<TRIPOS>BOND
     1    20    21    1
     2    21    22   ar
     3    22    23   ar
     4    23    24   ar
     5    24    25   ar
     6    25    26   ar
     7    26    27   ar
     8    27    28   ar
     9    28    29   ar
    10    29    30   ar
    11    26    31    1
    12    31    32    1
    13    32    33    1
    14    33    19    1
    15    19     1    1
    16     1     2    1
    17     2     3    1
    18     3     4    1
    19     4     7    1
    20     7     8   ar
    21     8     9   ar
    22     9    10   ar
    23    10    11   ar
    24    11    12   ar
    25    12    17    1
    26    17    18    3
    27    12    13   ar
    28    13    14   ar
    29    14    15   ar
    30    15    16   ar
    31     4     5    1
    32     5     6    1
    33    33    34    1
    34    30    21   ar
    35     6     1    1
    36    29    24   ar
    37    16     7   ar
    38    34    25    1
    39    15    10   ar
@<TRIPOS>MOLECULE
*****
 34 39 0 0 0
SMALL
GASTEIGER

@<TRIPOS>ATOM
      1 N          59.1172   90.4496    5.8751 N.3     1  UNL1       -0.2666
      2 C          58.3140   91.4458    5.0924 C.3     1  UNL1        0.0939
      3 C          58.9631   92.2367    3.9956 C.3     1  UNL1        0.1095
      4 N          60.4155   92.0315    3.6814 N.pl3   1  UNL1       -0.2904
      5 C          61.2186   91.0354    4.4641 C.3     1  UNL1        0.1095
      6 C          60.5695   90.2444    5.5609 C.3     1  UNL1        0.0939
      7 C          61.0646   92.8224    2.5846 C.ar    1  UNL1        0.1317
      8 C          60.2181   93.5351    1.5718 C.ar    1  UNL1        0.0343
      9 C          60.8672   94.3260    0.4750 C.ar    1  UNL1        0.0044
     10 C          62.3628   94.4043    0.3909 C.ar    1  UNL1        0.0185
     11 C          63.0120   95.1952   -0.7059 C.ar    1  UNL1        0.0118
     12 C          64.5075   95.2736   -0.7900 C.ar    1  UNL1        0.0685
     13 C          65.3540   94.5609    0.2228 C.ar    1  UNL1        0.0118
     14 C          64.7049   93.7700    1.3196 C.ar    1  UNL1        0.0198
     15 C          63.2093   93.6917    1.4037 C.ar    1  UNL1        0.0827
     16 N          62.5601   92.9007    2.5005 N.ar    1  UNL1       -0.2307
     17 C          65.1567   96.0645   -1.8869 C.1     1  UNL1        0.1004
     18 N          65.8058   96.8554   -2.9837 N.1     1  UNL1       -0.1908
     19 C          58.4681   89.6587    6.9719 C.3     1  UNL1        0.1202
     20 C          64.4322   89.9498   14.1895 C.3     1  UNL1        0.0521
     21 C          63.5603   89.4920   13.0581 C.ar    1  UNL1        0.0593
     22 C          62.7581   90.4909   12.2779 C.ar    1  UNL1        0.0148
     23 C          61.8861   90.0331   11.1465 C.ar    1  UNL1        0.0058
     24 C          61.8165   88.5765   10.7952 C.ar    1  UNL1        0.0547
     25 C          60.9446   88.1187    9.6637 C.ar    1  UNL1        0.1736
     26 C          60.8749   86.6621    9.3124 C.ar    1  UNL1        0.1725
     27 C          61.6772   85.6632   10.0926 C.ar    1  UNL1        0.0416
     28 C          62.5491   86.1210   11.2240 C.ar    1  UNL1        0.0224
     29 C          62.6187   87.5777   11.5753 C.ar    1  UNL1        0.0840
     30 N          63.4907   88.0355   12.7068 N.ar    1  UNL1       -0.2496
     31 O          60.0030   86.2044    8.1810 O.3     1  UNL1       -0.4685
     32 C          59.2007   87.2032    7.4008 C.3     1  UNL1        0.2501
     33 C          59.2704   88.6598    7.7521 C.3     1  UNL1        0.2252
     34 O          60.1423   89.1175    8.8836 O.3     1  UNL1       -0.4708
@<TRIPOS>BOND
     1    20    21    1
     2    21    22   ar
     3    22    23   ar
     4    23    24   ar
     5    24    25   ar
     6    25    26   ar
     7    26    27   ar
     8    27    28   ar
     9    28    29   ar
    10    29    30   ar
    11    26    31    1
    12    31    32    1
    13    32    33    1
    14    33    19    1
    15    19     1    1
    16     1     2    1
    17     2     3    1
    18     3     4    1
    19     4     7    1
    20     7     8   ar
    21     8     9   ar
    22     9    10   ar
    23    10    11   ar
    24    11    12   ar
    25    12    17    1
    26    17    18    3
    27    12    13   ar
    28    13    14   ar
    29    14    15   ar
    30    15    16   ar
    31     4     5    1
    32     5     6    1
    33    33    34    1
    34    30    21   ar
    35     6     1    1
    36    29    24   ar
    37    16     7   ar
    38    34    25    1
    39    15    10   ar
@<TRIPOS>MOLECULE
*****
 34 39 0 0 0
SMALL
GASTEIGER

@<TRIPOS>ATOM
      1 N          58.6606   90.2488    6.0054 N.3     1  UNL1       -0.2666
      2 C          60.1220   90.2151    5.6689 C.3     1  UNL1        0.0939
      3 C          60.6653   91.1107    4.5953 C.3     1  UNL1        0.1095
      4 N          59.7471   92.0401    3.8581 N.pl3   1  UNL1       -0.2904
      5 C          58.2858   92.0738    4.1946 C.3     1  UNL1        0.1095
      6 C          57.7425   91.1782    5.2682 C.3     1  UNL1        0.0939
      7 C          60.2904   92.9357    2.7845 C.ar    1  UNL1        0.1317
      8 C          60.2272   94.4256    2.9475 C.ar    1  UNL1        0.0343
      9 C          60.7705   95.3212    1.8738 C.ar    1  UNL1        0.0044
     10 C          61.3770   94.7270    0.6372 C.ar    1  UNL1        0.0185
     11 C          61.9203   95.6226   -0.4364 C.ar    1  UNL1        0.0118
     12 C          62.5268   95.0285   -1.6730 C.ar    1  UNL1        0.0685
     13 C          62.5900   93.5387   -1.8360 C.ar    1  UNL1        0.0118
     14 C          62.0467   92.6431   -0.7623 C.ar    1  UNL1        0.0198
     15 C          61.4402   93.2372    0.4743 C.ar    1  UNL1        0.0827
     16 N          60.8969   92.3416    1.5479 N.ar    1  UNL1       -0.2307
     17 C          63.0701   95.9242   -2.7466 C.1     1  UNL1        0.1004
     18 N          63.6134   96.8198   -3.8202 N.1     1  UNL1       -0.1908
     19 C          58.1173   89.3532    7.0790 C.3     1  UNL1        0.1202
     20 C          64.1204   90.1737   14.2232 C.3     1  UNL1        0.0521
     21 C          63.2882   89.6427   13.0938 C.ar    1  UNL1        0.0593
     22 C          62.3672   90.5599   12.3451 C.ar    1  UNL1        0.0148
     23 C          61.5350   90.0289   11.2158 C.ar    1  UNL1        0.0058
     24 C          61.6237   88.5807   10.8351 C.ar    1  UNL1        0.0547
     25 C          60.7915   88.0497    9.7057 C.ar    1  UNL1        0.1736
     26 C          60.8802   86.6016    9.3251 C.ar    1  UNL1        0.1725
     27 C          61.8012   85.6843   10.0738 C.ar    1  UNL1        0.0416
     28 C          62.6334   86.2153   11.2032 C.ar    1  UNL1        0.0224
     29 C          62.5447   87.6636   11.5838 C.ar    1  UNL1        0.0840
     30 N          63.3769   88.1945   12.7131 N.ar    1  UNL1       -0.2496
     31 O          60.0480   86.0706    8.1957 O.3     1  UNL1       -0.4685
     32 C          59.1270   86.9878    7.4470 C.3     1  UNL1        0.2501
     33 C          59.0383   88.4359    7.8277 C.3     1  UNL1        0.2252
     34 O          59.8705   88.9669    8.9570 O.3     1  UNL1       -0.4708
@<TRIPOS>BOND
     1    20    21    1
     2    21    22   ar
     3    22    23   ar
     4    23    24   ar
     5    24    25   ar
     6    25    26   ar
     7    26    27   ar
     8    27    28   ar
     9    28    29   ar
    10    29    30   ar
    11    26    31    1
    12    31    32    1
    13    32    33    1
    14    33    19    1
    15    19     1    1
    16     1     2    1
    17     2     3    1
    18     3     4    1
    19     4     7    1
    20     7     8   ar
    21     8     9   ar
    22     9    10   ar
    23    10    11   ar
    24    11    12   ar
    25    12    17    1
    26    17    18    3
    27    12    13   ar
    28    13    14   ar
    29    14    15   ar
    30    15    16   ar
    31     4     5    1
    32     5     6    1
    33    33    34    1
    34    30    21   ar
    35     6     1    1
    36    29    24   ar
    37    16     7   ar
    38    34    25    1
    39    15    10   ar
@<TRIPOS>MOLECULE
*****
 34 39 0 0 0
SMALL
GASTEIGER

@<TRIPOS>ATOM
      1 N          71.6843   77.0253   14.0707 N.3     1  UNL1       -0.2666
      2 C          71.0227   76.6834   12.7686 C.3     1  UNL1        0.0939
      3 C          71.3155   77.4963   11.5424 C.3     1  UNL1        0.1095
      4 N          72.2698   78.6511   11.6183 N.pl3   1  UNL1       -0.2904
      5 C          72.9314   78.9929   12.9204 C.3     1  UNL1        0.1095
      6 C          72.6387   78.1801   14.1466 C.3     1  UNL1        0.0939
      7 C          72.5626   79.4640   10.3922 C.ar    1  UNL1        0.1317
      8 C          73.2492   80.7916   10.5188 C.ar    1  UNL1        0.0343
      9 C          73.5420   81.6045    9.2926 C.ar    1  UNL1        0.0044
     10 C          73.1481   81.0898    7.9398 C.ar    1  UNL1        0.0185
     11 C          73.4408   81.9027    6.7136 C.ar    1  UNL1        0.0118
     12 C          73.0470   81.3879    5.3609 C.ar    1  UNL1        0.0685
     13 C          72.3604   80.0603    5.2343 C.ar    1  UNL1        0.0118
     14 C          72.0676   79.2474    6.4605 C.ar    1  UNL1        0.0198
     15 C          72.4615   79.7622    7.8133 C.ar    1  UNL1        0.0827
     16 N          72.1688   78.9493    9.0394 N.ar    1  UNL1       -0.2307
     17 C          73.3398   82.2008    4.1347 C.1     1  UNL1        0.1004
     18 N          73.6325   83.0137    2.9086 N.1     1  UNL1       -0.1908
     19 C          71.3916   76.2124   15.2969 C.3     1  UNL1        0.1202
     20 C          68.5772   68.1688   11.4072 C.3     1  UNL1        0.0521
     21 C          69.3090   69.2024   12.2112 C.ar    1  UNL1        0.0593
     22 C          68.8868   70.6402   12.1462 C.ar    1  UNL1        0.0148
     23 C          69.6186   71.6738   12.9501 C.ar    1  UNL1        0.0058
     24 C          70.7725   71.2695   13.8190 C.ar    1  UNL1        0.0547
     25 C          71.5042   72.3031   14.6229 C.ar    1  UNL1        0.1736
     26 C          72.6581   71.8987   15.4918 C.ar    1  UNL1        0.1725
     27 C          73.0803   70.4608   15.5568 C.ar    1  UNL1        0.0416
     28 C          72.3485   69.4272   14.7529 C.ar    1  UNL1        0.0224
     29 C          71.1946   69.8316   13.8840 C.ar    1  UNL1        0.0840
     30 N          70.4629   68.7980   13.0801 N.ar    1  UNL1       -0.2496
     31 O          73.3898   72.9323   16.2958 O.3     1  UNL1       -0.4685
     32 C          72.9677   74.3702   16.2308 C.3     1  UNL1        0.2501
     33 C          71.8138   74.7745   15.3619 C.3     1  UNL1        0.2252
     34 O          71.0821   73.7409   14.5580 O.3     1  UNL1       -0.4708
@<TRIPOS>BOND
     1    20    21    1
     2    21    22   ar
     3    22    23   ar
     4    23    24   ar
     5    24    25   ar
     6    25    26   ar
     7    26    27   ar
     8    27    28   ar
     9    28    29   ar
    10    29    30   ar
    11    26    31    1
    12    31    32    1
    13    32    33    1
    14    33    19    1
    15    19     1    1
    16     1     2    1
    17     2     3    1
    18     3     4    1
    19     4     7    1
    20     7     8   ar
    21     8     9   ar
    22     9    10   ar
    23    10    11   ar
    24    11    12   ar
    25    12    17    1
    26    17    18    3
    27    12    13   ar
    28    13    14   ar
    29    14    15   ar
    30    15    16   ar
    31     4     5    1
    32     5     6    1
    33    33    34    1
    34    30    21   ar
    35     6     1    1
    36    29    24   ar
    37    16     7   ar
    38    34    25    1
    39    15    10   ar
