@<TRIPOS>MOLECULE
*****
 34 39 0 0 0
SMALL
GASTEIGER

@<TRIPOS>ATOM
      1 O          61.2960   85.0275   10.3981 O.2     1  UNL1       -0.2526
      2 C          61.5406   86.5059   10.4648 C.2     1  UNL1        0.3039
      3 N          62.3616   87.0807   11.5809 N.am    1  UNL1       -0.2901
      4 N          60.9642   87.4096    9.4155 N.am    1  UNL1       -0.2642
      5 C          60.1433   86.8348    8.2994 C.3     1  UNL1        0.0954
      6 C          59.5669   87.7385    7.2500 C.3     1  UNL1        0.0309
      7 C          59.8115   89.2169    7.3168 C.3     1  UNL1        0.0827
      8 C          60.6324   89.7917    8.4329 C.3     1  UNL1        0.0309
      9 C          61.2088   88.8880    9.4822 C.3     1  UNL1        0.0954
     10 H          62.5221   88.0511   11.6247 H       1  UNL1        0.1509
     11 C          59.2351   90.1206    6.2674 C.ar    1  UNL1        0.2362
     12 N          60.0128   90.8783    5.2324 N.ar    1  UNL1       -0.1895
     13 C          59.0381   91.6512    4.3942 C.ar    1  UNL1        0.2210
     14 N          57.6581   91.3712    4.9110 N.ar    1  UNL1       -0.0544
     15 O          57.7798   90.4252    6.0688 O.2     1  UNL1       -0.3370
     16 C          59.3830   92.5469    3.2414 C.ar    1  UNL1        0.1202
     17 C          60.4679   93.5724    3.3869 C.ar    1  UNL1        0.0224
     18 C          60.8128   94.4681    2.2342 C.ar    1  UNL1        0.0031
     19 C          60.0727   94.3383    0.9359 C.ar    1  UNL1        0.0177
     20 C          60.4176   95.2340   -0.2168 C.ar    1  UNL1        0.0015
     21 C          59.6776   95.1041   -1.5150 C.ar    1  UNL1        0.0001
     22 C          58.5926   94.0786   -1.6605 C.ar    1  UNL1        0.0015
     23 C          58.2477   93.1829   -0.5078 C.ar    1  UNL1        0.0191
     24 C          58.9878   93.3128    0.7904 C.ar    1  UNL1        0.0814
     25 N          58.6429   92.4171    1.9432 N.ar    1  UNL1       -0.2422
     26 C          62.9380   86.1770   12.6303 C.3     1  UNL1        0.0774
     27 C          63.7698   85.9833   13.8633 C.3     1  UNL1        0.0259
     28 C          63.1045   84.8058   13.2148 C.3     1  UNL1        0.0420
     29 C          62.8165   83.3341   13.1779 C.ar    1  UNL1       -0.0208
     30 C          63.2234   82.5199   11.9857 C.ar    1  UNL1       -0.0042
     31 C          62.9354   81.0483   11.9487 C.ar    1  UNL1       -0.0003
     32 C          62.2405   80.3909   13.1041 C.ar    1  UNL1       -0.0000
     33 C          61.8335   81.2051   14.2964 C.ar    1  UNL1       -0.0003
     34 C          62.1215   82.6766   14.3333 C.ar    1  UNL1       -0.0042
@<TRIPOS>BOND
     1     1     2    2
     2     2     3   am
     3     3    26    1
     4    26    27    1
     5    27    28    1
     6    28    29    1
     7    29    30   ar
     8    30    31   ar
     9    31    32   ar
    10    32    33   ar
    11    33    34   ar
    12     2     4   am
    13     4     5    1
    14     5     6    1
    15     6     7    1
    16     7    11    1
    17    11    12   ar
    18    12    13   ar
    19    13    16    1
    20    16    17   ar
    21    17    18   ar
    22    18    19   ar
    23    19    20   ar
    24    20    21   ar
    25    21    22   ar
    26    22    23   ar
    27    23    24   ar
    28    24    25   ar
    29    13    14   ar
    30    14    15   ar
    31     7     8    1
    32     8     9    1
    33    28    26    1
    34    34    29   ar
    35     9     4    1
    36    15    11   ar
    37    25    16   ar
    38    24    19   ar
    39     3    10    1
@<TRIPOS>MOLECULE
*****
 34 39 0 0 0
SMALL
GASTEIGER

@<TRIPOS>ATOM
      1 O          58.2498   91.2915    5.3104 O.2     1  UNL1       -0.2526
      2 C          59.7076   91.1050    5.0100 C.2     1  UNL1        0.3039
      3 N          60.5103   90.1013    5.7832 N.am    1  UNL1       -0.2901
      4 N          60.3625   91.9224    3.9363 N.am    1  UNL1       -0.2642
      5 C          59.5598   92.9262    3.1630 C.3     1  UNL1        0.0954
      6 C          60.2148   93.7436    2.0893 C.3     1  UNL1        0.0309
      7 C          61.6725   93.5572    1.7888 C.3     1  UNL1        0.0827
      8 C          62.4753   92.5534    2.5621 C.3     1  UNL1        0.0309
      9 C          61.8203   91.7360    3.6358 C.3     1  UNL1        0.0954
     10 H          61.4671   89.9789    5.5860 H       1  UNL1        0.1509
     11 C          62.3275   94.3745    0.7151 C.ar    1  UNL1        0.2362
     12 N          62.8587   93.8551   -0.5880 N.ar    1  UNL1       -0.1895
     13 C          63.4258   95.0144   -1.3525 C.ar    1  UNL1        0.2210
     14 N          63.2451   96.2503   -0.5218 N.ar    1  UNL1       -0.0544
     15 O          62.5664   95.8549    0.7560 O.2     1  UNL1       -0.3370
     16 C          64.0619   94.9493   -2.7094 C.ar    1  UNL1        0.1202
     17 C          64.7260   96.1646   -3.2855 C.ar    1  UNL1        0.0224
     18 C          65.3621   96.0994   -4.6424 C.ar    1  UNL1        0.0031
     19 C          65.3342   94.8189   -5.4232 C.ar    1  UNL1        0.0177
     20 C          65.9702   94.7538   -6.7800 C.ar    1  UNL1        0.0015
     21 C          65.9423   93.4733   -7.5607 C.ar    1  UNL1        0.0001
     22 C          65.2782   92.2580   -6.9846 C.ar    1  UNL1        0.0015
     23 C          64.6421   92.3231   -5.6277 C.ar    1  UNL1        0.0191
     24 C          64.6701   93.6036   -4.8470 C.ar    1  UNL1        0.0814
     25 N          64.0339   93.6688   -3.4901 N.ar    1  UNL1       -0.2422
     26 C          59.8553   89.2838    6.8570 C.3     1  UNL1        0.0774
     27 C          58.6279   88.6471    7.4382 C.3     1  UNL1        0.0259
     28 C          59.9483   88.5048    8.1354 C.3     1  UNL1        0.0420
     29 C          60.7644   87.9729    9.2761 C.ar    1  UNL1       -0.0208
     30 C          61.5676   88.9124   10.1258 C.ar    1  UNL1       -0.0042
     31 C          62.3837   88.3805   11.2665 C.ar    1  UNL1       -0.0003
     32 C          62.3965   86.9091   11.5574 C.ar    1  UNL1       -0.0000
     33 C          61.5932   85.9695   10.7077 C.ar    1  UNL1       -0.0003
     34 C          60.7772   86.5014    9.5671 C.ar    1  UNL1       -0.0042
@<TRIPOS>BOND
     1     1     2    2
     2     2     3   am
     3     3    26    1
     4    26    27    1
     5    27    28    1
     6    28    29    1
     7    29    30   ar
     8    30    31   ar
     9    31    32   ar
    10    32    33   ar
    11    33    34   ar
    12     2     4   am
    13     4     5    1
    14     5     6    1
    15     6     7    1
    16     7    11    1
    17    11    12   ar
    18    12    13   ar
    19    13    16    1
    20    16    17   ar
    21    17    18   ar
    22    18    19   ar
    23    19    20   ar
    24    20    21   ar
    25    21    22   ar
    26    22    23   ar
    27    23    24   ar
    28    24    25   ar
    29    13    14   ar
    30    14    15   ar
    31     7     8    1
    32     8     9    1
    33    28    26    1
    34    34    29   ar
    35     9     4    1
    36    15    11   ar
    37    25    16   ar
    38    24    19   ar
    39     3    10    1
@<TRIPOS>MOLECULE
*****
 34 39 0 0 0
SMALL
GASTEIGER

@<TRIPOS>ATOM
      1 O          61.1601   95.1351   -1.8168 O.2     1  UNL1       -0.2526
      2 C          62.0604   94.4649   -0.8215 C.2     1  UNL1        0.3039
      3 N          63.5449   94.4610   -1.0365 N.am    1  UNL1       -0.2901
      4 N          61.4761   93.7986    0.3887 N.am    1  UNL1       -0.2642
      5 C          59.9916   93.8025    0.6036 C.3     1  UNL1        0.0954
      6 C          59.4073   93.1361    1.8138 C.3     1  UNL1        0.0309
      7 C          60.3075   92.4660    2.8091 C.3     1  UNL1        0.0827
      8 C          61.7920   92.4621    2.5941 C.3     1  UNL1        0.0309
      9 C          62.3763   93.1284    1.3839 C.3     1  UNL1        0.0954
     10 H          64.1357   94.0212   -0.3833 H       1  UNL1        0.1509
     11 C          59.7232   91.7996    4.0193 C.ar    1  UNL1        0.2362
     12 N          60.4198   90.8063    4.9015 N.ar    1  UNL1       -0.1895
     13 C          59.4668   90.4025    5.9872 C.ar    1  UNL1        0.2210
     14 N          58.1813   91.1461    5.7760 N.ar    1  UNL1       -0.0544
     15 O          58.3398   92.0096    4.5598 O.2     1  UNL1       -0.3370
     16 C          59.7497   89.4263    7.0905 C.ar    1  UNL1        0.1202
     17 C          59.0262   88.1130    7.1337 C.ar    1  UNL1        0.0224
     18 C          59.3091   87.1369    8.2369 C.ar    1  UNL1        0.0031
     19 C          60.3155   87.4739    9.2969 C.ar    1  UNL1        0.0177
     20 C          60.5984   86.4978   10.4001 C.ar    1  UNL1        0.0015
     21 C          61.6048   86.8349   11.4600 C.ar    1  UNL1        0.0001
     22 C          62.3283   88.1481   11.4167 C.ar    1  UNL1        0.0015
     23 C          62.0455   89.1243   10.3135 C.ar    1  UNL1        0.0191
     24 C          61.0391   88.7872    9.2536 C.ar    1  UNL1        0.0814
     25 N          60.7561   89.7634    8.1504 N.ar    1  UNL1       -0.2422
     26 C          64.1292   95.1274   -2.2468 C.3     1  UNL1        0.0774
     27 C          64.6443   96.3595   -2.9297 C.3     1  UNL1        0.0259
     28 C          64.6262   95.0494   -3.6598 C.3     1  UNL1        0.0420
     29 C          64.9027   94.2479   -4.8973 C.ar    1  UNL1       -0.0208
     30 C          64.7100   92.7604   -4.8860 C.ar    1  UNL1       -0.0042
     31 C          64.9865   91.9589   -6.1234 C.ar    1  UNL1       -0.0003
     32 C          65.4557   92.6450   -7.3720 C.ar    1  UNL1       -0.0000
     33 C          65.6484   94.1325   -7.3833 C.ar    1  UNL1       -0.0003
     34 C          65.3719   94.9339   -6.1459 C.ar    1  UNL1       -0.0042
@<TRIPOS>BOND
     1     1     2    2
     2     2     3   am
     3     3    26    1
     4    26    27    1
     5    27    28    1
     6    28    29    1
     7    29    30   ar
     8    30    31   ar
     9    31    32   ar
    10    32    33   ar
    11    33    34   ar
    12     2     4   am
    13     4     5    1
    14     5     6    1
    15     6     7    1
    16     7    11    1
    17    11    12   ar
    18    12    13   ar
    19    13    16    1
    20    16    17   ar
    21    17    18   ar
    22    18    19   ar
    23    19    20   ar
    24    20    21   ar
    25    21    22   ar
    26    22    23   ar
    27    23    24   ar
    28    24    25   ar
    29    13    14   ar
    30    14    15   ar
    31     7     8    1
    32     8     9    1
    33    28    26    1
    34    34    29   ar
    35     9     4    1
    36    15    11   ar
    37    25    16   ar
    38    24    19   ar
    39     3    10    1
@<TRIPOS>MOLECULE
*****
 34 39 0 0 0
SMALL
GASTEIGER

@<TRIPOS>ATOM
      1 O          59.3635   94.4057    1.7273 O.2     1  UNL1       -0.2526
      2 C          60.5181   93.5708    2.1963 C.2     1  UNL1        0.3039
      3 N          61.8728   93.7491    1.5774 N.am    1  UNL1       -0.2901
      4 N          60.3181   92.5577    3.2841 N.am    1  UNL1       -0.2642
      5 C          58.9634   92.3793    3.9030 C.3     1  UNL1        0.0954
      6 C          58.7634   91.3662    4.9909 C.3     1  UNL1        0.0309
      7 C          59.9180   90.5313    5.4598 C.3     1  UNL1        0.0827
      8 C          61.2726   90.7096    4.8409 C.3     1  UNL1        0.0309
      9 C          61.4727   91.7228    3.7531 C.3     1  UNL1        0.0954
     10 H          62.6306   93.2012    1.8852 H       1  UNL1        0.1509
     11 C          59.7179   89.5182    6.5477 C.ar    1  UNL1        0.2362
     12 N          60.8008   88.8668    7.3560 N.ar    1  UNL1       -0.1895
     13 C          60.1519   87.9246    8.3261 C.ar    1  UNL1        0.2210
     14 N          58.6681   87.9935    8.1174 N.ar    1  UNL1       -0.0544
     15 O          58.3999   88.9783    7.0183 O.2     1  UNL1       -0.3370
     16 C          60.8623   87.0644    9.3289 C.ar    1  UNL1        0.1202
     17 C          60.6191   87.2653   10.7954 C.ar    1  UNL1        0.0224
     18 C          61.3294   86.4052   11.7981 C.ar    1  UNL1        0.0031
     19 C          62.2829   85.3440   11.3345 C.ar    1  UNL1        0.0177
     20 C          62.9932   84.4839   12.3373 C.ar    1  UNL1        0.0015
     21 C          63.9467   83.4229   11.8736 C.ar    1  UNL1        0.0001
     22 C          64.1898   83.2219   10.4071 C.ar    1  UNL1        0.0015
     23 C          63.4795   84.0821    9.4043 C.ar    1  UNL1        0.0191
     24 C          62.5261   85.1431    9.8680 C.ar    1  UNL1        0.0814
     25 N          61.8157   86.0033    8.8652 N.ar    1  UNL1       -0.2422
     26 C          62.0729   94.7623    0.4895 C.3     1  UNL1        0.0774
     27 C          61.9051   96.1587   -0.0320 C.3     1  UNL1        0.0259
     28 C          62.5872   95.1208   -0.8732 C.3     1  UNL1        0.0420
     29 C          63.2780   94.7286   -2.1456 C.ar    1  UNL1       -0.0208
     30 C          64.1141   95.7308   -2.8847 C.ar    1  UNL1       -0.0042
     31 C          64.8049   95.3387   -4.1571 C.ar    1  UNL1       -0.0003
     32 C          64.6595   93.9443   -4.6904 C.ar    1  UNL1       -0.0000
     33 C          63.8234   92.9420   -3.9513 C.ar    1  UNL1       -0.0003
     34 C          63.1327   93.3342   -2.6789 C.ar    1  UNL1       -0.0042
@<TRIPOS>BOND
     1     1     2    2
     2     2     3   am
     3     3    26    1
     4    26    27    1
     5    27    28    1
     6    28    29    1
     7    29    30   ar
     8    30    31   ar
     9    31    32   ar
    10    32    33   ar
    11    33    34   ar
    12     2     4   am
    13     4     5    1
    14     5     6    1
    15     6     7    1
    16     7    11    1
    17    11    12   ar
    18    12    13   ar
    19    13    16    1
    20    16    17   ar
    21    17    18   ar
    22    18    19   ar
    23    19    20   ar
    24    20    21   ar
    25    21    22   ar
    26    22    23   ar
    27    23    24   ar
    28    24    25   ar
    29    13    14   ar
    30    14    15   ar
    31     7     8    1
    32     8     9    1
    33    28    26    1
    34    34    29   ar
    35     9     4    1
    36    15    11   ar
    37    25    16   ar
    38    24    19   ar
    39     3    10    1
@<TRIPOS>MOLECULE
*****
 34 39 0 0 0
SMALL
GASTEIGER

@<TRIPOS>ATOM
      1 O          57.9694   89.3200    7.2431 O.2     1  UNL1       -0.2526
      2 C          59.3521   89.7099    6.8117 C.2     1  UNL1        0.3039
      3 N          60.5440   89.2136    7.5753 N.am    1  UNL1       -0.2901
      4 N          59.5430   90.5962    5.6166 N.am    1  UNL1       -0.2642
      5 C          58.3511   91.0925    4.8530 C.3     1  UNL1        0.0954
      6 C          58.5420   91.9788    3.6580 C.3     1  UNL1        0.0309
      7 C          59.9247   92.3687    3.2266 C.3     1  UNL1        0.0827
      8 C          61.1166   91.8723    3.9902 C.3     1  UNL1        0.0309
      9 C          60.9257   90.9861    5.1852 C.3     1  UNL1        0.0954
     10 H          61.4515   89.4695    7.2921 H       1  UNL1        0.1509
     11 C          60.1156   93.2549    2.0316 C.ar    1  UNL1        0.2362
     12 N          60.7007   92.8434    0.7131 N.ar    1  UNL1       -0.1895
     13 C          60.7016   94.0425   -0.1881 C.ar    1  UNL1        0.2210
     14 N          60.1170   95.1951    0.5733 N.ar    1  UNL1       -0.0544
     15 O          59.7549   94.7084    1.9451 O.2     1  UNL1       -0.3370
     16 C          61.1996   94.0820   -1.6025 C.ar    1  UNL1        0.1202
     17 C          60.5100   94.9458   -2.6166 C.ar    1  UNL1        0.0224
     18 C          61.0080   94.9853   -4.0309 C.ar    1  UNL1        0.0031
     19 C          62.1956   94.1610   -4.4313 C.ar    1  UNL1        0.0177
     20 C          62.6935   94.2005   -5.8457 C.ar    1  UNL1        0.0015
     21 C          63.8810   93.3761   -6.2460 C.ar    1  UNL1        0.0001
     22 C          64.5705   92.5123   -5.2319 C.ar    1  UNL1        0.0015
     23 C          64.0726   92.4728   -3.8176 C.ar    1  UNL1        0.0191
     24 C          62.8851   93.2971   -3.4173 C.ar    1  UNL1        0.0814
     25 N          62.3871   93.2576   -2.0028 N.ar    1  UNL1       -0.2422
     26 C          60.3531   88.3273    8.7704 C.3     1  UNL1        0.0774
     27 C          59.5884   87.9623   10.0080 C.3     1  UNL1        0.0259
     28 C          60.7873   87.1574    9.6025 C.3     1  UNL1        0.0420
     29 C          61.7303   86.0170    9.8489 C.ar    1  UNL1       -0.0208
     30 C          61.8386   85.4161   11.2189 C.ar    1  UNL1       -0.0042
     31 C          62.7815   84.2758   11.4654 C.ar    1  UNL1       -0.0003
     32 C          63.6161   83.7366   10.3418 C.ar    1  UNL1       -0.0000
     33 C          63.5078   84.3376    8.9717 C.ar    1  UNL1       -0.0003
     34 C          62.5649   85.4778    8.7253 C.ar    1  UNL1       -0.0042
@<TRIPOS>BOND
     1     1     2    2
     2     2     3   am
     3     3    26    1
     4    26    27    1
     5    27    28    1
     6    28    29    1
     7    29    30   ar
     8    30    31   ar
     9    31    32   ar
    10    32    33   ar
    11    33    34   ar
    12     2     4   am
    13     4     5    1
    14     5     6    1
    15     6     7    1
    16     7    11    1
    17    11    12   ar
    18    12    13   ar
    19    13    16    1
    20    16    17   ar
    21    17    18   ar
    22    18    19   ar
    23    19    20   ar
    24    20    21   ar
    25    21    22   ar
    26    22    23   ar
    27    23    24   ar
    28    24    25   ar
    29    13    14   ar
    30    14    15   ar
    31     7     8    1
    32     8     9    1
    33    28    26    1
    34    34    29   ar
    35     9     4    1
    36    15    11   ar
    37    25    16   ar
    38    24    19   ar
    39     3    10    1
@<TRIPOS>MOLECULE
*****
 34 39 0 0 0
SMALL
GASTEIGER

@<TRIPOS>ATOM
      1 O          66.7789   93.8849   13.6205 O.2     1  UNL1       -0.2526
      2 C          65.7347   93.1438   12.8391 C.2     1  UNL1        0.3039
      3 N          65.1391   93.7619   11.6089 N.am    1  UNL1       -0.2901
      4 N          65.2860   91.7847   13.2879 N.am    1  UNL1       -0.2642
      5 C          65.8815   91.1666   14.5181 C.3     1  UNL1        0.0954
      6 C          65.4329   89.8075   14.9669 C.3     1  UNL1        0.0309
      7 C          64.3887   89.0664   14.1856 C.3     1  UNL1        0.0827
      8 C          63.7932   89.6845   12.9554 C.3     1  UNL1        0.0309
      9 C          64.2418   91.0436   12.5066 C.3     1  UNL1        0.0954
     10 H          64.4538   93.2755   11.0961 H       1  UNL1        0.1509
     11 C          63.9400   87.7073   14.6344 C.ar    1  UNL1        0.2362
     12 N          63.8029   86.4924   13.7652 N.ar    1  UNL1       -0.1895
     13 C          63.3278   85.3587   14.6249 C.ar    1  UNL1        0.2210
     14 N          63.1714   85.8728   16.0253 N.ar    1  UNL1       -0.0544
     15 O          63.5497   87.3243   16.0312 O.2     1  UNL1       -0.3370
     16 C          63.0568   83.9569   14.1648 C.ar    1  UNL1        0.1202
     17 C          62.4674   82.9567   15.1145 C.ar    1  UNL1        0.0224
     18 C          62.1964   81.5549   14.6545 C.ar    1  UNL1        0.0031
     19 C          62.5148   81.1534   13.2447 C.ar    1  UNL1        0.0177
     20 C          62.2438   79.7517   12.7847 C.ar    1  UNL1        0.0015
     21 C          62.5622   79.3503   11.3750 C.ar    1  UNL1        0.0001
     22 C          63.1516   80.3506   10.4252 C.ar    1  UNL1        0.0015
     23 C          63.4226   81.7523   10.8853 C.ar    1  UNL1        0.0191
     24 C          63.1042   82.1537   12.2950 C.ar    1  UNL1        0.0814
     25 N          63.3752   83.5555   12.7551 N.ar    1  UNL1       -0.2422
     26 C          65.5878   95.1211   11.1601 C.3     1  UNL1        0.0774
     27 C          65.9633   96.5370   11.4822 C.3     1  UNL1        0.0259
     28 C          65.9893   96.0591   10.0606 C.3     1  UNL1        0.0420
     29 C          66.2361   96.3247    8.6051 C.ar    1  UNL1       -0.0208
     30 C          65.0784   96.4710    7.6626 C.ar    1  UNL1       -0.0042
     31 C          65.3252   96.7366    6.2071 C.ar    1  UNL1       -0.0003
     32 C          66.7296   96.8560    5.6941 C.ar    1  UNL1       -0.0000
     33 C          67.8874   96.7096    6.6366 C.ar    1  UNL1       -0.0003
     34 C          67.6405   96.4440    8.0920 C.ar    1  UNL1       -0.0042
@<TRIPOS>BOND
     1     1     2    2
     2     2     3   am
     3     3    26    1
     4    26    27    1
     5    27    28    1
     6    28    29    1
     7    29    30   ar
     8    30    31   ar
     9    31    32   ar
    10    32    33   ar
    11    33    34   ar
    12     2     4   am
    13     4     5    1
    14     5     6    1
    15     6     7    1
    16     7    11    1
    17    11    12   ar
    18    12    13   ar
    19    13    16    1
    20    16    17   ar
    21    17    18   ar
    22    18    19   ar
    23    19    20   ar
    24    20    21   ar
    25    21    22   ar
    26    22    23   ar
    27    23    24   ar
    28    24    25   ar
    29    13    14   ar
    30    14    15   ar
    31     7     8    1
    32     8     9    1
    33    28    26    1
    34    34    29   ar
    35     9     4    1
    36    15    11   ar
    37    25    16   ar
    38    24    19   ar
    39     3    10    1
@<TRIPOS>MOLECULE
*****
 34 39 0 0 0
SMALL
GASTEIGER

@<TRIPOS>ATOM
      1 O          58.0715   88.9253    7.7086 O.2     1  UNL1       -0.2526
      2 C          59.3898   89.4578    7.2305 C.2     1  UNL1        0.3039
      3 N          60.6532   89.0888    7.9500 N.am    1  UNL1       -0.2901
      4 N          59.4447   90.3593    6.0328 N.am    1  UNL1       -0.2642
      5 C          58.1813   90.7283    5.3134 C.3     1  UNL1        0.0954
      6 C          58.2363   91.6297    4.1157 C.3     1  UNL1        0.0309
      7 C          59.5546   92.1622    3.6376 C.3     1  UNL1        0.0827
      8 C          60.8180   91.7932    4.3571 C.3     1  UNL1        0.0309
      9 C          60.7630   90.8917    5.5547 C.3     1  UNL1        0.0954
     10 H          61.5184   89.4382    7.6361 H       1  UNL1        0.1509
     11 C          59.6095   93.0636    2.4400 C.ar    1  UNL1        0.2362
     12 N          59.2616   92.6812    1.0318 N.ar    1  UNL1       -0.1895
     13 C          59.4591   93.8871    0.1618 C.ar    1  UNL1        0.2210
     14 N          59.9290   95.0148    1.0322 N.ar    1  UNL1       -0.0544
     15 O          60.0219   94.5059    2.4402 O.2     1  UNL1       -0.3370
     16 C          59.2273   93.9535   -1.3187 C.ar    1  UNL1        0.1202
     17 C          59.7785   95.1001   -2.1134 C.ar    1  UNL1        0.0224
     18 C          59.5468   95.1666   -3.5939 C.ar    1  UNL1        0.0031
     19 C          58.7639   94.0865   -4.2797 C.ar    1  UNL1        0.0177
     20 C          58.5321   94.1530   -5.7602 C.ar    1  UNL1        0.0015
     21 C          57.7492   93.0729   -6.4460 C.ar    1  UNL1        0.0001
     22 C          57.1980   91.9263   -5.6513 C.ar    1  UNL1        0.0015
     23 C          57.4297   91.8598   -4.1709 C.ar    1  UNL1        0.0191
     24 C          58.2127   92.9399   -3.4851 C.ar    1  UNL1        0.0814
     25 N          58.4444   92.8734   -2.0045 N.ar    1  UNL1       -0.2422
     26 C          60.5983   88.1873    9.1476 C.3     1  UNL1        0.0774
     27 C          59.9960   87.8218   10.4719 C.3     1  UNL1        0.0259
     28 C          61.1054   86.9914    9.8977 C.3     1  UNL1        0.0420
     29 C          62.0387   85.8214    9.9993 C.ar    1  UNL1       -0.0208
     30 C          62.2276   85.1248   11.3141 C.ar    1  UNL1       -0.0042
     31 C          63.1609   83.9549   11.4157 C.ar    1  UNL1       -0.0003
     32 C          63.9052   83.4817   10.2025 C.ar    1  UNL1       -0.0000
     33 C          63.7162   84.1784    8.8876 C.ar    1  UNL1       -0.0003
     34 C          62.7830   85.3482    8.7860 C.ar    1  UNL1       -0.0042
@<TRIPOS>BOND
     1     1     2    2
     2     2     3   am
     3     3    26    1
     4    26    27    1
     5    27    28    1
     6    28    29    1
     7    29    30   ar
     8    30    31   ar
     9    31    32   ar
    10    32    33   ar
    11    33    34   ar
    12     2     4   am
    13     4     5    1
    14     5     6    1
    15     6     7    1
    16     7    11    1
    17    11    12   ar
    18    12    13   ar
    19    13    16    1
    20    16    17   ar
    21    17    18   ar
    22    18    19   ar
    23    19    20   ar
    24    20    21   ar
    25    21    22   ar
    26    22    23   ar
    27    23    24   ar
    28    24    25   ar
    29    13    14   ar
    30    14    15   ar
    31     7     8    1
    32     8     9    1
    33    28    26    1
    34    34    29   ar
    35     9     4    1
    36    15    11   ar
    37    25    16   ar
    38    24    19   ar
    39     3    10    1
@<TRIPOS>MOLECULE
*****
 34 39 0 0 0
SMALL
GASTEIGER

@<TRIPOS>ATOM
      1 O          58.2385   88.6774    7.6712 O.2     1  UNL1       -0.2526
      2 C          59.5496   89.1151    7.0886 C.2     1  UNL1        0.3039
      3 N          60.8299   88.5123    7.5858 N.am    1  UNL1       -0.2901
      4 N          59.5803   90.1557    6.0087 N.am    1  UNL1       -0.2642
      5 C          58.2999   90.7586    5.5115 C.3     1  UNL1        0.0954
      6 C          58.3306   91.7992    4.4316 C.3     1  UNL1        0.0309
      7 C          59.6417   92.2370    3.8490 C.3     1  UNL1        0.0827
      8 C          60.9221   91.6341    4.3462 C.3     1  UNL1        0.0309
      9 C          60.8914   90.5935    5.4260 C.3     1  UNL1        0.0954
     10 H          61.6904   88.7996    7.2034 H       1  UNL1        0.1509
     11 C          59.6724   93.2776    2.7691 C.ar    1  UNL1        0.2362
     12 N          59.4197   93.0413    1.3095 N.ar    1  UNL1       -0.1895
     13 C          59.5524   94.3549    0.5976 C.ar    1  UNL1        0.2210
     14 N          59.8871   95.4030    1.6171 N.ar    1  UNL1       -0.0544
     15 O          59.9613   94.7372    2.9591 O.2     1  UNL1       -0.3370
     16 C          59.3805   94.5807   -0.8754 C.ar    1  UNL1        0.1202
     17 C          58.0738   95.0888   -1.4088 C.ar    1  UNL1        0.0224
     18 C          57.9018   95.3146   -2.8817 C.ar    1  UNL1        0.0031
     19 C          59.0366   95.0324   -3.8212 C.ar    1  UNL1        0.0177
     20 C          58.8647   95.2582   -5.2941 C.ar    1  UNL1        0.0015
     21 C          59.9994   94.9760   -6.2336 C.ar    1  UNL1        0.0001
     22 C          61.3061   94.4679   -5.7002 C.ar    1  UNL1        0.0015
     23 C          61.4780   94.2421   -4.2273 C.ar    1  UNL1        0.0191
     24 C          60.3433   94.5243   -3.2879 C.ar    1  UNL1        0.0814
     25 N          60.5152   94.2985   -1.8149 N.ar    1  UNL1       -0.2422
     26 C          60.7992   87.4716    8.6657 C.3     1  UNL1        0.0774
     27 C          60.2548   86.1872    9.2168 C.3     1  UNL1        0.0259
     28 C          61.2905   86.9536    9.9849 C.3     1  UNL1        0.0420
     29 C          62.1721   87.0971   11.1900 C.ar    1  UNL1       -0.0208
     30 C          62.6127   88.4587   11.6391 C.ar    1  UNL1       -0.0042
     31 C          63.4942   88.6021   12.8442 C.ar    1  UNL1       -0.0003
     32 C          63.9352   87.3839   13.6002 C.ar    1  UNL1       -0.0000
     33 C          63.4946   86.0222   13.1510 C.ar    1  UNL1       -0.0003
     34 C          62.6130   85.8788   11.9460 C.ar    1  UNL1       -0.0042
@<TRIPOS>BOND
     1     1     2    2
     2     2     3   am
     3     3    26    1
     4    26    27    1
     5    27    28    1
     6    28    29    1
     7    29    30   ar
     8    30    31   ar
     9    31    32   ar
    10    32    33   ar
    11    33    34   ar
    12     2     4   am
    13     4     5    1
    14     5     6    1
    15     6     7    1
    16     7    11    1
    17    11    12   ar
    18    12    13   ar
    19    13    16    1
    20    16    17   ar
    21    17    18   ar
    22    18    19   ar
    23    19    20   ar
    24    20    21   ar
    25    21    22   ar
    26    22    23   ar
    27    23    24   ar
    28    24    25   ar
    29    13    14   ar
    30    14    15   ar
    31     7     8    1
    32     8     9    1
    33    28    26    1
    34    34    29   ar
    35     9     4    1
    36    15    11   ar
    37    25    16   ar
    38    24    19   ar
    39     3    10    1
@<TRIPOS>MOLECULE
*****
 34 39 0 0 0
SMALL
GASTEIGER

@<TRIPOS>ATOM
      1 O          63.0120   84.0519   16.0198 O.2     1  UNL1       -0.2526
      2 C          63.0570   84.7256   14.6803 C.2     1  UNL1        0.3039
      3 N          62.6596   83.9699   13.4470 N.am    1  UNL1       -0.2901
      4 N          63.4994   86.1549   14.5741 N.am    1  UNL1       -0.2642
      5 C          63.8968   86.9106   15.8074 C.3     1  UNL1        0.0954
      6 C          64.3392   88.3399   15.7013 C.3     1  UNL1        0.0309
      7 C          64.3842   89.0135   14.3618 C.3     1  UNL1        0.0827
      8 C          63.9869   88.2579   13.1285 C.3     1  UNL1        0.0309
      9 C          63.5445   86.8285   13.2346 C.3     1  UNL1        0.0954
     10 H          62.6892   84.4121   12.5679 H       1  UNL1        0.1509
     11 C          64.8266   90.4428   14.2556 C.ar    1  UNL1        0.2362
     12 N          65.1760   91.1659   12.9886 N.ar    1  UNL1       -0.1895
     13 C          65.5626   92.5700   13.3478 C.ar    1  UNL1        0.2210
     14 N          65.4523   92.7148   14.8367 N.ar    1  UNL1       -0.0544
     15 O          64.9974   91.4002   15.3978 O.2     1  UNL1       -0.3370
     16 C          65.9854   93.6413   12.3867 C.ar    1  UNL1        0.1202
     17 C          66.0963   95.0636   12.8502 C.ar    1  UNL1        0.0224
     18 C          66.5191   96.1348   11.8892 C.ar    1  UNL1        0.0031
     19 C          66.8310   95.7839   10.4646 C.ar    1  UNL1        0.0177
     20 C          67.2538   96.8551    9.5035 C.ar    1  UNL1        0.0015
     21 C          67.5657   96.5041    8.0790 C.ar    1  UNL1        0.0001
     22 C          67.4549   95.0819    7.6154 C.ar    1  UNL1        0.0015
     23 C          67.0321   94.0106    8.5764 C.ar    1  UNL1        0.0191
     24 C          66.7202   94.3616   10.0010 C.ar    1  UNL1        0.0814
     25 N          66.2974   93.2903   10.9621 N.ar    1  UNL1       -0.2422
     26 C          62.2172   82.5405   13.5531 C.3     1  UNL1        0.0774
     27 C          61.5198   81.4494   14.3101 C.3     1  UNL1        0.0259
     28 C          62.1483   81.1561   12.9801 C.3     1  UNL1        0.0420
     29 C          62.4713   80.1873   11.8813 C.ar    1  UNL1       -0.0208
     30 C          62.4228   78.7115   12.1444 C.ar    1  UNL1       -0.0042
     31 C          62.7458   77.7427   11.0457 C.ar    1  UNL1       -0.0003
     32 C          63.1174   78.2499    9.6838 C.ar    1  UNL1       -0.0000
     33 C          63.1659   79.7259    9.4207 C.ar    1  UNL1       -0.0003
     34 C          62.8429   80.6945   10.5194 C.ar    1  UNL1       -0.0042
@<TRIPOS>BOND
     1     1     2    2
     2     2     3   am
     3     3    26    1
     4    26    27    1
     5    27    28    1
     6    28    29    1
     7    29    30   ar
     8    30    31   ar
     9    31    32   ar
    10    32    33   ar
    11    33    34   ar
    12     2     4   am
    13     4     5    1
    14     5     6    1
    15     6     7    1
    16     7    11    1
    17    11    12   ar
    18    12    13   ar
    19    13    16    1
    20    16    17   ar
    21    17    18   ar
    22    18    19   ar
    23    19    20   ar
    24    20    21   ar
    25    21    22   ar
    26    22    23   ar
    27    23    24   ar
    28    24    25   ar
    29    13    14   ar
    30    14    15   ar
    31     7     8    1
    32     8     9    1
    33    28    26    1
    34    34    29   ar
    35     9     4    1
    36    15    11   ar
    37    25    16   ar
    38    24    19   ar
    39     3    10    1
