@<TRIPOS>MOLECULE
*****
 27 30 0 0 0
SMALL
GASTEIGER

@<TRIPOS>ATOM
      1 C          61.8691   89.0178   11.5643 C.3     1  UNL1        0.2068
      2 C          66.3405   93.5696   12.4534 C.ar    1  UNL1        0.1359
      3 C          66.7579   93.4741   13.8909 C.ar    1  UNL1        0.0367
      4 C          66.1330   92.4459   14.7866 C.ar    1  UNL1        0.0044
      5 C          65.0906   91.5133   14.2448 C.ar    1  UNL1        0.0148
      6 C          64.6731   91.6089   12.8073 C.ar    1  UNL1        0.0528
      7 C          65.2980   92.6370   11.9116 C.ar    1  UNL1        0.0272
      8 C          64.6895   92.4951   10.5479 C.3     1  UNL1        0.0526
      9 C          63.6885   91.3793   10.6008 C.3     1  UNL1        0.1030
     10 N          63.6784   90.8315   11.9972 N.am    1  UNL1       -0.2580
     11 C          62.8236   89.7043   12.4960 C.2     1  UNL1        0.2419
     12 O          62.9231   89.2636   13.9262 O.2     1  UNL1       -0.2739
     13 C          66.2104   95.8457   11.2073 C.3     1  UNL1        0.2525
     14 O          66.9654   94.5978   11.5577 O.3     1  UNL1       -0.4717
     15 C          62.1315   87.6070   11.1276 C.2     1  UNL1        0.3580
     16 N          62.4511   86.5537   12.1466 N.2     1  UNL1       -0.0039
     17 C          62.7135   85.1429   11.7098 C.2     1  UNL1        0.3159
     18 C          62.6562   84.7854   10.2542 C.3     1  UNL1        0.2333
     19 C          62.3365   85.8387    9.2352 C.2     1  UNL1        0.3644
     20 O          62.2792   85.4813    7.7795 O.2     1  UNL1       -0.2422
     21 N          62.0741   87.2495    9.6719 N.am    1  UNL1        0.0289
     22 N          63.0332   84.0894   12.7288 N.pl3   1  UNL1       -0.1888
     23 C          62.7759   82.6444   12.4197 C.3     1  UNL1        0.2343
     24 C          63.0955   81.5909   13.4385 C.3     1  UNL1        0.1929
     25 O          63.6725   81.9827   14.7666 O.3     1  UNL1       -0.3449
     26 C          63.9298   83.4277   15.0757 C.3     1  UNL1        0.1929
     27 C          63.6101   84.4811   14.0568 C.3     1  UNL1        0.2343
@<TRIPOS>BOND
     1    13    14    1
     2    14     2    1
     3     2     3   ar
     4     3     4   ar
     5     4     5   ar
     6     5     6   ar
     7     6     7   ar
     8     7     8    1
     9     8     9    1
    10     9    10    1
    11    10    11   am
    12    11    12    2
    13    11     1    1
    14     1    15    1
    15    15    16    1
    16    16    17    2
    17    17    22    1
    18    22    23    1
    19    23    24    1
    20    24    25    1
    21    25    26    1
    22    26    27    1
    23    17    18    1
    24    18    19    1
    25    19    20    2
    26    19    21    1
    27     7     2   ar
    28    21    15    2
    29    10     6    1
    30    27    22    1
@<TRIPOS>MOLECULE
*****
 27 30 0 0 0
SMALL
GASTEIGER

@<TRIPOS>ATOM
      1 C          63.0163   90.4618   13.6825 C.3     1  UNL1        0.2068
      2 C          60.1190   87.8256    8.5680 C.ar    1  UNL1        0.1359
      3 C          60.7304   86.4672    8.3920 C.ar    1  UNL1        0.0367
      4 C          61.7994   85.9982    9.3338 C.ar    1  UNL1        0.0044
      5 C          62.2571   86.8874   10.4517 C.ar    1  UNL1        0.0148
      6 C          61.6457   88.2458   10.6277 C.ar    1  UNL1        0.0528
      7 C          60.5766   88.7149    9.6858 C.ar    1  UNL1        0.0272
      8 C          60.1619   90.0940   10.1053 C.3     1  UNL1        0.0526
      9 C          60.9746   90.4773   11.3064 C.3     1  UNL1        0.1030
     10 N          61.8916   89.3351   11.6292 N.am    1  UNL1       -0.2580
     11 C          62.8809   89.2899   12.7559 C.2     1  UNL1        0.2419
     12 O          63.7347   88.0731   12.9560 O.2     1  UNL1       -0.2739
     13 C          59.3469   89.3816    6.6360 C.3     1  UNL1        0.2525
     14 O          59.0500   88.2947    7.6261 O.3     1  UNL1       -0.4717
     15 C          64.2779   91.2732   13.6861 C.2     1  UNL1        0.3580
     16 N          64.8634   91.7550   12.3918 N.2     1  UNL1       -0.0039
     17 C          66.1250   92.5664   12.3954 C.2     1  UNL1        0.3159
     18 C          66.8011   92.8959   13.6932 C.3     1  UNL1        0.2333
     19 C          66.2157   92.4141   14.9874 C.2     1  UNL1        0.3644
     20 O          66.8918   92.7436   16.2852 O.2     1  UNL1       -0.2422
     21 N          64.9541   91.6027   14.9839 N.am    1  UNL1        0.0289
     22 N          66.7105   93.0483   11.1011 N.pl3   1  UNL1       -0.1888
     23 C          66.2753   94.3629   10.5245 C.3     1  UNL1        0.2343
     24 C          66.8608   94.8448    9.2303 C.3     1  UNL1        0.1929
     25 O          67.8814   94.0121    8.5127 O.3     1  UNL1       -0.3449
     26 C          68.3166   92.6975    9.0894 C.3     1  UNL1        0.1929
     27 C          67.7311   92.2156   10.3836 C.3     1  UNL1        0.2343
@<TRIPOS>BOND
     1    13    14    1
     2    14     2    1
     3     2     3   ar
     4     3     4   ar
     5     4     5   ar
     6     5     6   ar
     7     6     7   ar
     8     7     8    1
     9     8     9    1
    10     9    10    1
    11    10    11   am
    12    11    12    2
    13    11     1    1
    14     1    15    1
    15    15    16    1
    16    16    17    2
    17    17    22    1
    18    22    23    1
    19    23    24    1
    20    24    25    1
    21    25    26    1
    22    26    27    1
    23    17    18    1
    24    18    19    1
    25    19    20    2
    26    19    21    1
    27     7     2   ar
    28    21    15    2
    29    10     6    1
    30    27    22    1
@<TRIPOS>MOLECULE
*****
 27 30 0 0 0
SMALL
GASTEIGER

@<TRIPOS>ATOM
      1 C          61.6352   89.1021   11.1487 C.3     1  UNL1        0.2068
      2 C          66.1514   92.3543   14.3936 C.ar    1  UNL1        0.1359
      3 C          66.7167   93.3595   13.4345 C.ar    1  UNL1        0.0367
      4 C          66.1937   93.4332   12.0305 C.ar    1  UNL1        0.0044
      5 C          65.1053   92.5018   11.5858 C.ar    1  UNL1        0.0148
      6 C          64.5400   91.4966   12.5449 C.ar    1  UNL1        0.0528
      7 C          65.0630   91.4229   13.9488 C.ar    1  UNL1        0.0272
      8 C          64.3166   90.3367   14.6651 C.3     1  UNL1        0.0526
      9 C          63.3322   89.7391   13.7039 C.3     1  UNL1        0.1030
     10 N          63.4703   90.4560   12.3935 N.am    1  UNL1       -0.2580
     11 C          62.6779   90.1806   11.1501 C.2     1  UNL1        0.2419
     12 O          62.9280   90.9834    9.9081 O.2     1  UNL1       -0.2739
     13 C          68.1516   92.3361   16.0514 C.3     1  UNL1        0.2525
     14 O          66.6744   92.2806   15.7975 O.3     1  UNL1       -0.4717
     15 C          62.0243   87.6831   10.8573 C.2     1  UNL1        0.3580
     16 N          62.3435   86.7465   11.9845 N.2     1  UNL1       -0.0039
     17 C          62.7326   85.3274   11.6932 C.2     1  UNL1        0.3159
     18 C          62.8024   84.8450   10.2746 C.3     1  UNL1        0.2333
     19 C          62.4832   85.7817    9.1473 C.2     1  UNL1        0.3644
     20 O          62.5531   85.2993    7.7287 O.2     1  UNL1       -0.2422
     21 N          62.0941   87.2007    9.4387 N.am    1  UNL1        0.0289
     22 N          63.0519   84.3907   12.8205 N.pl3   1  UNL1       -0.1888
     23 C          62.6877   82.9393   12.7156 C.3     1  UNL1        0.2343
     24 C          63.0069   82.0026   13.8428 C.3     1  UNL1        0.1929
     25 O          63.6903   82.5173   15.0749 O.3     1  UNL1       -0.3449
     26 C          64.0544   83.9686   15.1798 C.3     1  UNL1        0.1929
     27 C          63.7352   84.9053   14.0526 C.3     1  UNL1        0.2343
@<TRIPOS>BOND
     1    13    14    1
     2    14     2    1
     3     2     3   ar
     4     3     4   ar
     5     4     5   ar
     6     5     6   ar
     7     6     7   ar
     8     7     8    1
     9     8     9    1
    10     9    10    1
    11    10    11   am
    12    11    12    2
    13    11     1    1
    14     1    15    1
    15    15    16    1
    16    16    17    2
    17    17    22    1
    18    22    23    1
    19    23    24    1
    20    24    25    1
    21    25    26    1
    22    26    27    1
    23    17    18    1
    24    18    19    1
    25    19    20    2
    26    19    21    1
    27     7     2   ar
    28    21    15    2
    29    10     6    1
    30    27    22    1
@<TRIPOS>MOLECULE
*****
 27 30 0 0 0
SMALL
GASTEIGER

@<TRIPOS>ATOM
      1 C          60.9288   89.7688   11.9582 C.3     1  UNL1        0.2068
      2 C          66.6852   92.6608   12.0052 C.ar    1  UNL1        0.1359
      3 C          67.2227   92.5052   13.3969 C.ar    1  UNL1        0.0367
      4 C          66.4182   91.7805   14.4350 C.ar    1  UNL1        0.0044
      5 C          65.0762   91.2114   14.0814 C.ar    1  UNL1        0.0148
      6 C          64.5387   91.3670   12.6897 C.ar    1  UNL1        0.0528
      7 C          65.3432   92.0917   11.6516 C.ar    1  UNL1        0.0272
      8 C          64.5597   92.0885   10.3725 C.3     1  UNL1        0.0526
      9 C          63.2710   91.3619   10.6200 C.3     1  UNL1        0.1030
     10 N          63.2580   90.9160   12.0521 N.am    1  UNL1       -0.2580
     11 C          62.1576   90.1530   12.7281 C.2     1  UNL1        0.2419
     12 O          62.2858   89.7742   14.1737 O.2     1  UNL1       -0.2739
     13 C          68.0866   92.6287    9.8178 C.3     1  UNL1        0.2525
     14 O          67.4897   93.3854   10.9671 O.3     1  UNL1       -0.4717
     15 C          60.9353   88.5381   11.1006 C.2     1  UNL1        0.3580
     16 N          61.8143   87.3774   11.4612 N.2     1  UNL1       -0.0039
     17 C          61.8209   86.1468   10.6037 C.2     1  UNL1        0.3159
     18 C          60.9484   86.0769    9.3855 C.3     1  UNL1        0.2333
     19 C          60.0693   87.2375    9.0249 C.2     1  UNL1        0.3644
     20 O          59.1968   87.1676    7.8068 O.2     1  UNL1       -0.2422
     21 N          60.0628   88.4682    9.8825 N.am    1  UNL1        0.0289
     22 N          62.6999   84.9860   10.9642 N.pl3   1  UNL1       -0.1888
     23 C          63.3545   84.1769    9.8840 C.3     1  UNL1        0.2343
     24 C          64.2335   83.0162   10.2445 C.3     1  UNL1        0.1929
     25 O          64.4580   82.6646   11.6853 O.3     1  UNL1       -0.3449
     26 C          63.8035   83.4736   12.7655 C.3     1  UNL1        0.1929
     27 C          62.9244   84.6344   12.4051 C.3     1  UNL1        0.2343
@<TRIPOS>BOND
     1    13    14    1
     2    14     2    1
     3     2     3   ar
     4     3     4   ar
     5     4     5   ar
     6     5     6   ar
     7     6     7   ar
     8     7     8    1
     9     8     9    1
    10     9    10    1
    11    10    11   am
    12    11    12    2
    13    11     1    1
    14     1    15    1
    15    15    16    1
    16    16    17    2
    17    17    22    1
    18    22    23    1
    19    23    24    1
    20    24    25    1
    21    25    26    1
    22    26    27    1
    23    17    18    1
    24    18    19    1
    25    19    20    2
    26    19    21    1
    27     7     2   ar
    28    21    15    2
    29    10     6    1
    30    27    22    1
@<TRIPOS>MOLECULE
*****
 27 30 0 0 0
SMALL
GASTEIGER

@<TRIPOS>ATOM
      1 C          62.1971   90.1919   10.4240 C.3     1  UNL1        0.2068
      2 C          66.3841   92.7754   14.5830 C.ar    1  UNL1        0.1359
      3 C          65.9056   92.3947   15.9526 C.ar    1  UNL1        0.0367
      4 C          64.6658   91.5653   16.1104 C.ar    1  UNL1        0.0044
      5 C          63.9044   91.1166   14.8984 C.ar    1  UNL1        0.0148
      6 C          64.3828   91.4973   13.5287 C.ar    1  UNL1        0.0528
      7 C          65.6227   92.3267   13.3710 C.ar    1  UNL1        0.0272
      8 C          65.8504   92.5456   11.9046 C.3     1  UNL1        0.0526
      9 C          64.7514   91.8516   11.1561 C.3     1  UNL1        0.1030
     10 N          63.8444   91.2037   12.1598 N.am    1  UNL1       -0.2580
     11 C          62.6147   90.4028   11.8492 C.2     1  UNL1        0.2419
     12 O          61.8026   89.8127   12.9637 O.2     1  UNL1       -0.2739
     13 C          68.5722   93.7625   15.5766 C.3     1  UNL1        0.2525
     14 O          67.6239   93.6048   14.4252 O.3     1  UNL1       -0.4717
     15 C          61.7059   88.8468    9.9775 C.2     1  UNL1        0.3580
     16 N          62.3923   87.6014   10.4548 N.2     1  UNL1       -0.0039
     17 C          61.9011   86.2563   10.0084 C.2     1  UNL1        0.3159
     18 C          60.7234   86.1566    9.0848 C.3     1  UNL1        0.2333
     19 C          60.0369   87.4019    8.6075 C.2     1  UNL1        0.3644
     20 O          58.8593   87.3022    7.6838 O.2     1  UNL1       -0.2422
     21 N          60.5282   88.7470    9.0539 N.am    1  UNL1        0.0289
     22 N          62.5875   85.0108   10.4857 N.pl3   1  UNL1       -0.1888
     23 C          62.4380   84.5717   11.9122 C.3     1  UNL1        0.2343
     24 C          63.1244   83.3264   12.3895 C.3     1  UNL1        0.1929
     25 O          63.9603   82.5200   11.4403 O.3     1  UNL1       -0.3449
     26 C          64.1099   82.9591   10.0138 C.3     1  UNL1        0.1929
     27 C          63.4235   84.2045    9.5365 C.3     1  UNL1        0.2343
@<TRIPOS>BOND
     1    13    14    1
     2    14     2    1
     3     2     3   ar
     4     3     4   ar
     5     4     5   ar
     6     5     6   ar
     7     6     7   ar
     8     7     8    1
     9     8     9    1
    10     9    10    1
    11    10    11   am
    12    11    12    2
    13    11     1    1
    14     1    15    1
    15    15    16    1
    16    16    17    2
    17    17    22    1
    18    22    23    1
    19    23    24    1
    20    24    25    1
    21    25    26    1
    22    26    27    1
    23    17    18    1
    24    18    19    1
    25    19    20    2
    26    19    21    1
    27     7     2   ar
    28    21    15    2
    29    10     6    1
    30    27    22    1
@<TRIPOS>MOLECULE
*****
 27 30 0 0 0
SMALL
GASTEIGER

@<TRIPOS>ATOM
      1 C          63.6120   90.5727   14.0121 C.3     1  UNL1        0.2068
      2 C          63.6018   84.2256   12.9091 C.ar    1  UNL1        0.1359
      3 C          62.8664   84.0243   11.6174 C.ar    1  UNL1        0.0367
      4 C          62.3147   85.2061   10.8764 C.ar    1  UNL1        0.0044
      5 C          62.4985   86.5891   11.4272 C.ar    1  UNL1        0.0148
      6 C          63.2339   86.7904   12.7189 C.ar    1  UNL1        0.0528
      7 C          63.7856   85.6086   13.4598 C.ar    1  UNL1        0.0272
      8 C          64.4608   86.1134   14.7005 C.3     1  UNL1        0.0526
      9 C          64.3265   87.6072   14.7263 C.3     1  UNL1        0.1030
     10 N          63.5682   88.0256   13.5016 N.am    1  UNL1       -0.2580
     11 C          63.2076   89.4322   13.1256 C.2     1  UNL1        0.2419
     12 O          62.4425   89.6984   11.8632 O.2     1  UNL1       -0.2739
     13 C          63.9115   81.6560   13.1351 C.3     1  UNL1        0.2525
     14 O          64.1535   83.0438   13.6501 O.3     1  UNL1       -0.4717
     15 C          64.9564   91.2156   13.8406 C.2     1  UNL1        0.3580
     16 N          65.3484   91.7913   12.5122 N.2     1  UNL1       -0.0039
     17 C          66.6928   92.4342   12.3408 C.2     1  UNL1        0.3159
     18 C          67.6450   92.5014   13.4978 C.3     1  UNL1        0.2333
     19 C          67.2529   91.9257   14.8263 C.2     1  UNL1        0.3644
     20 O          68.2052   91.9929   15.9833 O.2     1  UNL1       -0.2422
     21 N          65.9086   91.2828   14.9977 N.am    1  UNL1        0.0289
     22 N          67.0849   93.0100   11.0123 N.pl3   1  UNL1       -0.1888
     23 C          66.5590   94.3501   10.5910 C.3     1  UNL1        0.2343
     24 C          66.9510   94.9259    9.2626 C.3     1  UNL1        0.1929
     25 O          67.8691   94.1615    8.3554 O.3     1  UNL1       -0.3449
     26 C          68.3950   92.8214    8.7767 C.3     1  UNL1        0.1929
     27 C          68.0029   92.2456   10.1051 C.3     1  UNL1        0.2343
@<TRIPOS>BOND
     1    13    14    1
     2    14     2    1
     3     2     3   ar
     4     3     4   ar
     5     4     5   ar
     6     5     6   ar
     7     6     7   ar
     8     7     8    1
     9     8     9    1
    10     9    10    1
    11    10    11   am
    12    11    12    2
    13    11     1    1
    14     1    15    1
    15    15    16    1
    16    16    17    2
    17    17    22    1
    18    22    23    1
    19    23    24    1
    20    24    25    1
    21    25    26    1
    22    26    27    1
    23    17    18    1
    24    18    19    1
    25    19    20    2
    26    19    21    1
    27     7     2   ar
    28    21    15    2
    29    10     6    1
    30    27    22    1
@<TRIPOS>MOLECULE
*****
 27 30 0 0 0
SMALL
GASTEIGER

@<TRIPOS>ATOM
      1 C          63.2716   90.6930   13.7872 C.3     1  UNL1        0.2068
      2 C          62.2054   85.8103    9.7222 C.ar    1  UNL1        0.1359
      3 C          62.5748   84.5588   10.4620 C.ar    1  UNL1        0.0367
      4 C          63.0770   84.6421   11.8730 C.ar    1  UNL1        0.0044
      5 C          63.2097   85.9769   12.5442 C.ar    1  UNL1        0.0148
      6 C          62.8403   87.2284   11.8044 C.ar    1  UNL1        0.0528
      7 C          62.3382   87.1451   10.3934 C.ar    1  UNL1        0.0272
      8 C          62.0531   88.5395    9.9198 C.3     1  UNL1        0.0526
      9 C          62.3790   89.4846   11.0380 C.3     1  UNL1        0.1030
     10 N          62.8655   88.6743   12.2028 N.am    1  UNL1       -0.2580
     11 C          63.3009   89.2150   13.5325 C.2     1  UNL1        0.2419
     12 O          63.7654   88.2779   14.6075 O.2     1  UNL1       -0.2739
     13 C          62.4837   84.9655    7.2811 C.3     1  UNL1        0.2525
     14 O          61.7033   85.7269    8.3112 O.3     1  UNL1       -0.4717
     15 C          64.5451   91.4850   13.7547 C.2     1  UNL1        0.3580
     16 N          65.1022   91.9558   12.4440 N.2     1  UNL1       -0.0039
     17 C          66.3757   92.7478   12.4116 C.2     1  UNL1        0.3159
     18 C          67.0920   93.0689   13.6898 C.3     1  UNL1        0.2333
     19 C          66.5349   92.5981   15.0004 C.2     1  UNL1        0.3644
     20 O          67.2512   92.9192   16.2786 O.2     1  UNL1       -0.2422
     21 N          65.2614   91.8061   15.0329 N.am    1  UNL1        0.0289
     22 N          66.9329   93.2187   11.1008 N.pl3   1  UNL1       -0.1888
     23 C          66.6483   94.6113   10.6218 C.3     1  UNL1        0.2343
     24 C          67.2054   95.0822    9.3112 C.3     1  UNL1        0.1929
     25 O          68.0472   94.1604    8.4795 O.3     1  UNL1       -0.3449
     26 C          68.3318   92.7678    8.9586 C.3     1  UNL1        0.1929
     27 C          67.7747   92.2969   10.2692 C.3     1  UNL1        0.2343
@<TRIPOS>BOND
     1    13    14    1
     2    14     2    1
     3     2     3   ar
     4     3     4   ar
     5     4     5   ar
     6     5     6   ar
     7     6     7   ar
     8     7     8    1
     9     8     9    1
    10     9    10    1
    11    10    11   am
    12    11    12    2
    13    11     1    1
    14     1    15    1
    15    15    16    1
    16    16    17    2
    17    17    22    1
    18    22    23    1
    19    23    24    1
    20    24    25    1
    21    25    26    1
    22    26    27    1
    23    17    18    1
    24    18    19    1
    25    19    20    2
    26    19    21    1
    27     7     2   ar
    28    21    15    2
    29    10     6    1
    30    27    22    1
@<TRIPOS>MOLECULE
*****
 27 30 0 0 0
SMALL
GASTEIGER

@<TRIPOS>ATOM
      1 C          64.4284   86.3685   14.5512 C.3     1  UNL1        0.2068
      2 C          62.7738   80.7158   11.9413 C.ar    1  UNL1        0.1359
      3 C          61.8413   80.0595   12.9158 C.ar    1  UNL1        0.0367
      4 C          61.4867   80.7527   14.1979 C.ar    1  UNL1        0.0044
      5 C          62.0646   82.1023   14.5055 C.ar    1  UNL1        0.0148
      6 C          62.9971   82.7586   13.5310 C.ar    1  UNL1        0.0528
      7 C          63.3517   82.0654   12.2489 C.ar    1  UNL1        0.0272
      8 C          64.2906   82.9526   11.4865 C.3     1  UNL1        0.0526
      9 C          64.5163   84.1942   12.2974 C.3     1  UNL1        0.1030
     10 N          63.7169   84.0743   13.5609 N.am    1  UNL1       -0.2580
     11 C          63.6491   85.0915   14.6612 C.2     1  UNL1        0.2419
     12 O          62.8021   84.8318   15.8716 O.2     1  UNL1       -0.2739
     13 C          62.7298   78.5925   10.4448 C.3     1  UNL1        0.2525
     14 O          63.1284   80.0226   10.6593 O.3     1  UNL1       -0.4717
     15 C          63.8841   87.5124   13.7479 C.2     1  UNL1        0.3580
     16 N          63.0788   87.2441   12.5112 N.2     1  UNL1       -0.0039
     17 C          62.5345   88.3880   11.7079 C.2     1  UNL1        0.3159
     18 C          62.7955   89.8001   12.1413 C.3     1  UNL1        0.2333
     19 C          63.6008   90.0684   13.3779 C.2     1  UNL1        0.3644
     20 O          63.8618   91.4805   13.8113 O.2     1  UNL1       -0.2422
     21 N          64.1451   88.9245   14.1813 N.am    1  UNL1        0.0289
     22 N          61.7291   88.1197   10.4711 N.pl3   1  UNL1       -0.1888
     23 C          61.7140   86.7459    9.8692 C.3     1  UNL1        0.2343
     24 C          60.9087   86.4776    8.6325 C.3     1  UNL1        0.1929
     25 O          60.1185   87.5832    7.9977 O.3     1  UNL1       -0.3449
     26 C          60.1335   88.9571    8.5995 C.3     1  UNL1        0.1929
     27 C          60.9388   89.2254    9.8362 C.3     1  UNL1        0.2343
@<TRIPOS>BOND
     1    13    14    1
     2    14     2    1
     3     2     3   ar
     4     3     4   ar
     5     4     5   ar
     6     5     6   ar
     7     6     7   ar
     8     7     8    1
     9     8     9    1
    10     9    10    1
    11    10    11   am
    12    11    12    2
    13    11     1    1
    14     1    15    1
    15    15    16    1
    16    16    17    2
    17    17    22    1
    18    22    23    1
    19    23    24    1
    20    24    25    1
    21    25    26    1
    22    26    27    1
    23    17    18    1
    24    18    19    1
    25    19    20    2
    26    19    21    1
    27     7     2   ar
    28    21    15    2
    29    10     6    1
    30    27    22    1
@<TRIPOS>MOLECULE
*****
 27 30 0 0 0
SMALL
GASTEIGER

@<TRIPOS>ATOM
      1 C          63.8481   84.1169   13.9778 C.3     1  UNL1        0.2068
      2 C          61.2252   86.3156    8.5199 C.ar    1  UNL1        0.1359
      3 C          61.9482   85.6289    7.3994 C.ar    1  UNL1        0.0367
      4 C          63.0437   84.6500    7.7021 C.ar    1  UNL1        0.0044
      5 C          63.4161   84.3577    9.1254 C.ar    1  UNL1        0.0148
      6 C          62.6931   85.0444   10.2460 C.ar    1  UNL1        0.0528
      7 C          61.5976   86.0233    9.9432 C.ar    1  UNL1        0.0272
      8 C          61.0666   86.5424   11.2465 C.3     1  UNL1        0.0526
      9 C          61.8339   85.8842   12.3548 C.3     1  UNL1        0.1030
     10 N          62.8391   84.9584   11.7364 N.am    1  UNL1       -0.2580
     11 C          63.8183   84.0977   12.4782 C.2     1  UNL1        0.2419
     12 O          64.7678   83.2179   11.7205 O.2     1  UNL1       -0.2739
     13 C          58.7573   86.8001    7.8682 C.3     1  UNL1        0.2525
     14 O          60.1298   87.2946    8.2172 O.3     1  UNL1       -0.4717
     15 C          63.7180   85.4174   14.7140 C.2     1  UNL1        0.3580
     16 N          64.0209   86.7089   14.0139 N.2     1  UNL1       -0.0039
     17 C          63.8908   88.0094   14.7501 C.2     1  UNL1        0.3159
     18 C          63.4578   88.0182   16.1862 C.3     1  UNL1        0.2333
     19 C          63.1549   86.7266   16.8862 C.2     1  UNL1        0.3644
     20 O          62.7219   86.7355   18.3223 O.2     1  UNL1       -0.2422
     21 N          63.2850   85.4262   16.1501 N.am    1  UNL1        0.0289
     22 N          64.1937   89.3011   14.0501 N.pl3   1  UNL1       -0.1888
     23 C          63.4976   89.6388   12.7650 C.3     1  UNL1        0.2343
     24 C          63.8005   90.9304   12.0650 C.3     1  UNL1        0.1929
     25 O          64.7994   91.8843   12.6501 O.3     1  UNL1       -0.3449
     26 C          65.4954   91.5465   13.9352 C.3     1  UNL1        0.1929
     27 C          65.1926   90.2549   14.6352 C.3     1  UNL1        0.2343
@<TRIPOS>BOND
     1    13    14    1
     2    14     2    1
     3     2     3   ar
     4     3     4   ar
     5     4     5   ar
     6     5     6   ar
     7     6     7   ar
     8     7     8    1
     9     8     9    1
    10     9    10    1
    11    10    11   am
    12    11    12    2
    13    11     1    1
    14     1    15    1
    15    15    16    1
    16    16    17    2
    17    17    22    1
    18    22    23    1
    19    23    24    1
    20    24    25    1
    21    25    26    1
    22    26    27    1
    23    17    18    1
    24    18    19    1
    25    19    20    2
    26    19    21    1
    27     7     2   ar
    28    21    15    2
    29    10     6    1
    30    27    22    1
