@<TRIPOS>MOLECULE
*****
 53 57 0 0 0
SMALL
GASTEIGER

@<TRIPOS>ATOM
      1 C          63.8290   87.3205   14.3062 C.3     1  UNL1        0.3182
      2 O          63.8837   88.8176   14.3818 O.3     1  UNL1       -0.3160
      3 C          63.6304   89.5124   15.6869 C.3     1  UNL1        0.1776
      4 C          63.3225   88.7100   16.9163 C.3     1  UNL1        0.1695
      5 O          63.0692   89.4047   18.2213 O.3     1  UNL1       -0.3794
      6 C          63.2678   87.2129   16.8406 C.3     1  UNL1        0.1728
      7 O          62.9599   86.4106   18.0700 O.3     1  UNL1       -0.3793
      8 C          63.5211   86.5182   15.5356 C.3     1  UNL1        0.2105
      9 O          63.4664   85.0211   15.4599 O.3     1  UNL1       -0.3766
     10 H          63.1422   90.3639   18.0965 H       1  UNL1        0.2105
     11 H          62.8236   87.0092   18.8210 H       1  UNL1        0.2105
     12 H          63.6522   84.7363   14.5515 H       1  UNL1        0.2107
     13 O          64.0823   86.6257   13.0011 O.3     1  UNL1       -0.4441
     14 C          62.3864   85.3467   11.5050 C.ar    1  UNL1        0.1823
     15 O          61.3349   85.3534   10.4353 O.2     1  UNL1       -0.4500
     16 C          60.9276   86.6459    9.7921 C.ar    1  UNL1        0.1545
     17 C          59.8760   86.6526    8.7224 C.ar    1  UNL1        0.0744
     18 C          59.4687   87.9450    8.0793 C.ar    1  UNL1        0.1397
     19 O          58.4171   87.9517    7.0095 O.3     1  UNL1       -0.5053
     20 C          60.1130   89.2307    8.5057 C.ar    1  UNL1        0.0735
     21 C          61.1645   89.2240    9.5753 C.ar    1  UNL1        0.1428
     22 O          61.8088   90.5097   10.0018 O.3     1  UNL1       -0.5052
     23 C          61.5718   87.9316   10.2185 C.ar    1  UNL1        0.1104
     24 C          62.6234   87.9249   11.2882 C.ar    1  UNL1        0.2382
     25 O          63.2676   89.2106   11.7147 O.2     1  UNL1       -0.2830
     26 C          63.0307   86.6324   11.9314 C.ar    1  UNL1        0.2144
     27 H          58.0147   87.1486    6.7431 H       1  UNL1        0.2922
     28 H          61.5543   91.3171    9.6000 H       1  UNL1        0.2922
     29 C          62.2690   82.0706   13.7417 C.ar    1  UNL1        0.1722
     30 C          61.8616   83.3630   13.0985 C.ar    1  UNL1        0.0432
     31 C          62.7938   84.0543   12.1482 C.ar    1  UNL1        0.0409
     32 C          64.1333   83.4532   11.8411 C.ar    1  UNL1        0.0064
     33 C          64.5407   82.1608   12.4843 C.ar    1  UNL1        0.0399
     34 C          63.6085   81.4695   13.4346 C.ar    1  UNL1        0.1677
     35 O          64.0159   80.1770   14.0779 O.3     1  UNL1       -0.5029
     36 H          64.8526   79.8015   13.8860 H       1  UNL1        0.2923
     37 C          60.2558   80.4834   14.1638 C.3     1  UNL1        0.2526
     38 O          61.3368   81.3792   14.6921 O.3     1  UNL1       -0.4684
     39 C          63.6851   91.0094   15.7625 C.3     1  UNL1        0.1769
     40 O          65.0095   91.7134   15.7451 O.3     1  UNL1       -0.3259
     41 C          65.7401   91.9049   14.4490 C.3     1  UNL1        0.2657
     42 O          64.9773   92.2290   13.1989 O.3     1  UNL1       -0.3286
     43 C          65.7079   92.4205   11.9029 C.3     1  UNL1        0.1471
     44 C          64.9450   92.7446   10.6526 C.3     1  UNL1        0.0348
     45 C          67.2013   92.2878   11.8571 C.3     1  UNL1        0.1668
     46 O          67.9319   92.4792   10.5611 O.3     1  UNL1       -0.3795
     47 C          67.9641   91.9637   13.1073 C.3     1  UNL1        0.1714
     48 O          69.4575   91.8310   13.0616 O.3     1  UNL1       -0.3794
     49 C          67.2335   91.7722   14.4033 C.3     1  UNL1        0.1964
     50 O          67.9963   91.4481   15.6536 O.3     1  UNL1       -0.3775
     51 H          67.2951   92.6813    9.8578 H       1  UNL1        0.2105
     52 H          69.8387   92.6139   12.6342 H       1  UNL1        0.2105
     53 H          67.3779   91.3575   16.3953 H       1  UNL1        0.2106
@<TRIPOS>BOND
     1    37    38    1
     2    38    29    1
     3    29    30   ar
     4    30    31   ar
     5    31    14    1
     6    14    15   ar
     7    15    16   ar
     8    16    17   ar
     9    17    18   ar
    10    18    19    1
    11    18    20   ar
    12    20    21   ar
    13    21    22    1
    14    21    23   ar
    15    23    24   ar
    16    24    25    2
    17    24    26   ar
    18    26    13    1
    19     1    13    1
    20     1     2    1
    21     2     3    1
    22     3    39    1
    23    39    40    1
    24    41    40    1
    25    41    42    1
    26    42    43    1
    27    43    44    1
    28    43    45    1
    29    45    46    1
    30    45    47    1
    31    47    48    1
    32    47    49    1
    33    49    50    1
    34     3     4    1
    35     4     5    1
    36     4     6    1
    37     6     7    1
    38     6     8    1
    39     8     9    1
    40    31    32   ar
    41    32    33   ar
    42    33    34   ar
    43    34    35    1
    44    34    29   ar
    45    26    14   ar
    46     8     1    1
    47    23    16   ar
    48    49    41    1
    49    19    27    1
    50    22    28    1
    51    46    51    1
    52    48    52    1
    53    50    53    1
    54     5    10    1
    55     7    11    1
    56     9    12    1
    57    35    36    1
@<TRIPOS>MOLECULE
*****
 53 57 0 0 0
SMALL
GASTEIGER

@<TRIPOS>ATOM
      1 C          63.8035   87.0964   14.4284 C.3     1  UNL1        0.3182
      2 O          63.7795   88.5762   14.6734 O.3     1  UNL1       -0.3160
      3 C          63.4702   89.1047   16.0426 C.3     1  UNL1        0.1776
      4 C          63.1848   88.1536   17.1669 C.3     1  UNL1        0.1695
      5 O          62.8754   88.6822   18.5362 O.3     1  UNL1       -0.3794
      6 C          63.2087   86.6740   16.9219 C.3     1  UNL1        0.1728
      7 O          62.9233   85.7229   18.0462 O.3     1  UNL1       -0.3793
      8 C          63.5181   86.1454   15.5526 C.3     1  UNL1        0.2105
      9 O          63.5421   84.6658   15.3076 O.3     1  UNL1       -0.3766
     10 H          62.9007   89.6517   18.5218 H       1  UNL1        0.2105
     11 H          62.7445   86.2248   18.8567 H       1  UNL1        0.2105
     12 H          63.7566   84.4955   14.3771 H       1  UNL1        0.2107
     13 O          64.1129   86.5678   13.0591 O.3     1  UNL1       -0.4441
     14 C          62.4133   85.3200   11.5410 C.ar    1  UNL1        0.1823
     15 O          61.3624   85.3483   10.4711 O.2     1  UNL1       -0.4500
     16 C          60.9601   86.6528    9.8492 C.ar    1  UNL1        0.1545
     17 C          59.9092   86.6810    8.7793 C.ar    1  UNL1        0.0744
     18 C          59.5070   87.9854    8.1575 C.ar    1  UNL1        0.1397
     19 O          58.4560   88.0137    7.0875 O.3     1  UNL1       -0.5053
     20 C          60.1556   89.2615    8.6055 C.ar    1  UNL1        0.0735
     21 C          61.2065   89.2333    9.6755 C.ar    1  UNL1        0.1428
     22 O          61.8552   90.5094   10.1236 O.3     1  UNL1       -0.5052
     23 C          61.6088   87.9289   10.2973 C.ar    1  UNL1        0.1104
     24 C          62.6597   87.9006   11.3673 C.ar    1  UNL1        0.2382
     25 O          63.3083   89.1767   11.8154 O.2     1  UNL1       -0.2830
     26 C          63.0619   86.5962   11.9891 C.ar    1  UNL1        0.2144
     27 H          58.0508   87.2166    6.8075 H       1  UNL1        0.2922
     28 H          61.6039   91.3242    9.7351 H       1  UNL1        0.2922
     29 C          62.2828   82.0078   13.7232 C.ar    1  UNL1        0.1722
     30 C          61.8805   83.3122   13.1014 C.ar    1  UNL1        0.0432
     31 C          62.8156   84.0156   12.1629 C.ar    1  UNL1        0.0409
     32 C          64.1530   83.4147   11.8463 C.ar    1  UNL1        0.0064
     33 C          64.5553   82.1103   12.4682 C.ar    1  UNL1        0.0399
     34 C          63.6202   81.4069   13.4066 C.ar    1  UNL1        0.1677
     35 O          64.0225   80.1025   14.0285 O.3     1  UNL1       -0.5029
     36 H          64.8579   79.7271   13.8308 H       1  UNL1        0.2923
     37 C          60.1957   80.5119   14.1186 C.3     1  UNL1        0.2526
     38 O          61.3477   81.3043   14.6617 O.3     1  UNL1       -0.4684
     39 C          63.4462   90.5844   16.2876 C.3     1  UNL1        0.1769
     40 O          63.8051   91.5334   15.1829 O.3     1  UNL1       -0.3259
     41 C          65.2432   91.7415   14.8105 C.3     1  UNL1        0.2657
     42 O          66.2927   91.8090   15.8800 O.3     1  UNL1       -0.3286
     43 C          67.7307   92.0171   15.5075 C.3     1  UNL1        0.1471
     44 C          68.7803   92.0846   16.5771 C.3     1  UNL1        0.0348
     45 C          68.1192   92.1576   14.0656 C.3     1  UNL1        0.1668
     46 O          69.5573   92.3657   13.6932 O.3     1  UNL1       -0.3795
     47 C          67.0697   92.0902   12.9960 C.3     1  UNL1        0.1714
     48 O          67.4582   92.2307   11.5541 O.3     1  UNL1       -0.3794
     49 C          65.6317   91.8821   13.3685 C.3     1  UNL1        0.1964
     50 O          64.5821   91.8146   12.2989 O.3     1  UNL1       -0.3775
     51 H          70.1000   92.3848   14.4969 H       1  UNL1        0.2105
     52 H          68.1782   91.6131   11.3515 H       1  UNL1        0.2105
     53 H          63.7129   91.6773   12.7071 H       1  UNL1        0.2106
@<TRIPOS>BOND
     1    37    38    1
     2    38    29    1
     3    29    30   ar
     4    30    31   ar
     5    31    14    1
     6    14    15   ar
     7    15    16   ar
     8    16    17   ar
     9    17    18   ar
    10    18    19    1
    11    18    20   ar
    12    20    21   ar
    13    21    22    1
    14    21    23   ar
    15    23    24   ar
    16    24    25    2
    17    24    26   ar
    18    26    13    1
    19     1    13    1
    20     1     2    1
    21     2     3    1
    22     3    39    1
    23    39    40    1
    24    41    40    1
    25    41    42    1
    26    42    43    1
    27    43    44    1
    28    43    45    1
    29    45    46    1
    30    45    47    1
    31    47    48    1
    32    47    49    1
    33    49    50    1
    34     3     4    1
    35     4     5    1
    36     4     6    1
    37     6     7    1
    38     6     8    1
    39     8     9    1
    40    31    32   ar
    41    32    33   ar
    42    33    34   ar
    43    34    35    1
    44    34    29   ar
    45    26    14   ar
    46     8     1    1
    47    23    16   ar
    48    49    41    1
    49    19    27    1
    50    22    28    1
    51    46    51    1
    52    48    52    1
    53    50    53    1
    54     5    10    1
    55     7    11    1
    56     9    12    1
    57    35    36    1
@<TRIPOS>MOLECULE
*****
 53 57 0 0 0
SMALL
GASTEIGER

@<TRIPOS>ATOM
      1 C          64.2132   88.8314   14.2039 C.3     1  UNL1        0.3182
      2 O          65.3098   89.6680   13.6143 O.3     1  UNL1       -0.3160
      3 C          65.6546   90.9928   14.2274 C.3     1  UNL1        0.1776
      4 C          64.9028   91.4810   15.4302 C.3     1  UNL1        0.1695
      5 O          65.2476   92.8059   16.0433 O.3     1  UNL1       -0.3794
      6 C          63.8062   90.6444   16.0197 C.3     1  UNL1        0.1728
      7 O          63.0545   91.1327   17.2224 O.3     1  UNL1       -0.3793
      8 C          63.4614   89.3196   15.4066 C.3     1  UNL1        0.2105
      9 O          62.3649   88.4830   15.9962 O.3     1  UNL1       -0.3766
     10 H          65.9726   93.2141   15.5446 H       1  UNL1        0.2105
     11 H          63.3999   91.9987   17.4900 H       1  UNL1        0.2105
     12 H          62.2717   87.6645   15.4840 H       1  UNL1        0.2107
     13 O          63.8683   87.5066   13.5908 O.3     1  UNL1       -0.4441
     14 C          62.4826   86.1178   11.8875 C.ar    1  UNL1        0.1823
     15 O          61.5693   86.0563   10.6992 O.2     1  UNL1       -0.4500
     16 C          61.1284   87.3221   10.0258 C.ar    1  UNL1        0.1545
     17 C          60.2151   87.2606    8.8375 C.ar    1  UNL1        0.0744
     18 C          59.7743   88.5263    8.1641 C.ar    1  UNL1        0.1397
     19 O          58.8610   88.4649    6.9757 O.3     1  UNL1       -0.5053
     20 C          60.2468   89.8536    8.6790 C.ar    1  UNL1        0.0735
     21 C          61.1600   89.9151    9.8673 C.ar    1  UNL1        0.1428
     22 O          61.6325   91.2424   10.3822 O.3     1  UNL1       -0.5052
     23 C          61.6009   88.6494   10.5407 C.ar    1  UNL1        0.1104
     24 C          62.5142   88.7108   11.7290 C.ar    1  UNL1        0.2382
     25 O          62.9866   90.0381   12.2440 O.2     1  UNL1       -0.2830
     26 C          62.9550   87.4451   12.4024 C.ar    1  UNL1        0.2144
     27 H          58.5659   87.6358    6.6540 H       1  UNL1        0.2922
     28 H          61.3571   92.0331    9.9616 H       1  UNL1        0.2922
     29 C          63.1489   82.2638   12.5602 C.ar    1  UNL1        0.1722
     30 C          62.7081   83.5295   11.8868 C.ar    1  UNL1        0.0432
     31 C          62.9234   84.8520   12.5610 C.ar    1  UNL1        0.0409
     32 C          63.5796   84.9088   13.9086 C.ar    1  UNL1        0.0064
     33 C          64.0205   83.6431   14.5821 C.ar    1  UNL1        0.0399
     34 C          63.8051   82.3206   13.9079 C.ar    1  UNL1        0.1677
     35 O          64.2460   81.0548   14.5813 O.3     1  UNL1       -0.5029
     36 H          64.6559   81.0903   15.4232 H       1  UNL1        0.2923
     37 C          63.1299   80.8140   10.4043 C.3     1  UNL1        0.2526
     38 O          62.9336   80.9412   11.8860 O.3     1  UNL1       -0.4684
     39 C          66.7512   91.8294   13.6379 C.3     1  UNL1        0.1769
     40 O          66.4741   93.2434   13.2210 O.3     1  UNL1       -0.3259
     41 C          66.8014   93.6923   11.8275 C.3     1  UNL1        0.2657
     42 O          67.5608   92.7845   10.9061 O.3     1  UNL1       -0.3286
     43 C          67.8880   93.2334    9.5128 C.3     1  UNL1        0.1471
     44 C          68.6474   92.3255    8.5912 C.3     1  UNL1        0.0348
     45 C          67.4558   94.5900    9.0409 C.3     1  UNL1        0.1668
     46 O          67.7831   95.0389    7.6475 O.3     1  UNL1       -0.3795
     47 C          66.6965   95.4979    9.9624 C.3     1  UNL1        0.1714
     48 O          66.2643   96.8545    9.4905 O.3     1  UNL1       -0.3794
     49 C          66.3692   95.0490   11.3557 C.3     1  UNL1        0.1964
     50 O          65.6098   95.9568   12.2773 O.3     1  UNL1       -0.3775
     51 H          68.2731   94.3385    7.1889 H       1  UNL1        0.2105
     52 H          65.7929   96.7685    8.6471 H       1  UNL1        0.2105
     53 H          65.4831   95.5169   13.1324 H       1  UNL1        0.2106
@<TRIPOS>BOND
     1    37    38    1
     2    38    29    1
     3    29    30   ar
     4    30    31   ar
     5    31    14    1
     6    14    15   ar
     7    15    16   ar
     8    16    17   ar
     9    17    18   ar
    10    18    19    1
    11    18    20   ar
    12    20    21   ar
    13    21    22    1
    14    21    23   ar
    15    23    24   ar
    16    24    25    2
    17    24    26   ar
    18    26    13    1
    19     1    13    1
    20     1     2    1
    21     2     3    1
    22     3    39    1
    23    39    40    1
    24    41    40    1
    25    41    42    1
    26    42    43    1
    27    43    44    1
    28    43    45    1
    29    45    46    1
    30    45    47    1
    31    47    48    1
    32    47    49    1
    33    49    50    1
    34     3     4    1
    35     4     5    1
    36     4     6    1
    37     6     7    1
    38     6     8    1
    39     8     9    1
    40    31    32   ar
    41    32    33   ar
    42    33    34   ar
    43    34    35    1
    44    34    29   ar
    45    26    14   ar
    46     8     1    1
    47    23    16   ar
    48    49    41    1
    49    19    27    1
    50    22    28    1
    51    46    51    1
    52    48    52    1
    53    50    53    1
    54     5    10    1
    55     7    11    1
    56     9    12    1
    57    35    36    1
@<TRIPOS>MOLECULE
*****
 53 57 0 0 0
SMALL
GASTEIGER

@<TRIPOS>ATOM
      1 C          63.6483   89.8787   13.1760 C.3     1  UNL1        0.3182
      2 O          64.9450   90.5068   12.7586 O.3     1  UNL1       -0.3160
      3 C          65.6900   91.3935   13.7119 C.3     1  UNL1        0.1776
      4 C          65.1381   91.6522   15.0826 C.3     1  UNL1        0.1695
      5 O          65.8831   92.5389   16.0359 O.3     1  UNL1       -0.3794
      6 C          63.8415   91.0241   15.4999 C.3     1  UNL1        0.1728
      7 O          63.2897   91.2828   16.8705 O.3     1  UNL1       -0.3793
      8 C          63.0966   90.1374   14.5466 C.3     1  UNL1        0.2105
      9 O          61.7999   89.5094   14.9639 O.3     1  UNL1       -0.3766
     10 H          66.6943   92.8600   15.6121 H       1  UNL1        0.2105
     11 H          63.8894   91.8718   17.3546 H       1  UNL1        0.2105
     12 H          61.4524   88.9708   14.2358 H       1  UNL1        0.2107
     13 O          62.9034   88.9920   12.2227 O.3     1  UNL1       -0.4441
     14 C          62.1289   86.6217   11.4931 C.ar    1  UNL1        0.1823
     15 O          62.1319   85.1352   11.6933 O.2     1  UNL1       -0.4500
     16 C          62.9126   84.5322   12.8235 C.ar    1  UNL1        0.1545
     17 C          62.9156   83.0457   13.0237 C.ar    1  UNL1        0.0744
     18 C          63.6962   82.4428   14.1538 C.ar    1  UNL1        0.1397
     19 O          63.6993   80.9561   14.3540 O.3     1  UNL1       -0.5053
     20 C          64.4738   83.3264   15.0836 C.ar    1  UNL1        0.0735
     21 C          64.4707   84.8129   14.8834 C.ar    1  UNL1        0.1428
     22 O          65.2483   85.6966   15.8132 O.3     1  UNL1       -0.5052
     23 C          63.6901   85.4158   13.7533 C.ar    1  UNL1        0.1104
     24 C          63.6870   86.9025   13.5530 C.ar    1  UNL1        0.2382
     25 O          64.4646   87.7861   14.4829 O.2     1  UNL1       -0.2830
     26 C          62.9065   87.5054   12.4229 C.ar    1  UNL1        0.2144
     27 H          63.2136   80.4042   13.7732 H       1  UNL1        0.2922
     28 H          65.7359   85.3199   16.5192 H       1  UNL1        0.2922
     29 C          60.1778   86.9832    8.0562 C.ar    1  UNL1        0.1722
     30 C          60.9584   86.3802    9.1862 C.ar    1  UNL1        0.0432
     31 C          61.3483   87.2247   10.3630 C.ar    1  UNL1        0.0409
     32 C          60.9576   88.6722   10.4097 C.ar    1  UNL1        0.0064
     33 C          60.1770   89.2752    9.2796 C.ar    1  UNL1        0.0399
     34 C          59.7871   88.4307    8.1029 C.ar    1  UNL1        0.1677
     35 O          59.0065   89.0337    6.9728 O.3     1  UNL1       -0.5029
     36 H          58.7624   89.9379    7.0019 H       1  UNL1        0.2923
     37 C          60.5949   84.9243    6.5275 C.3     1  UNL1        0.2526
     38 O          59.7879   86.1388    6.8793 O.3     1  UNL1       -0.4684
     39 C          66.9866   92.0215   13.2946 C.3     1  UNL1        0.1769
     40 O          67.0612   93.5006   13.0565 O.3     1  UNL1       -0.3259
     41 C          66.8446   94.0501   11.6776 C.3     1  UNL1        0.2657
     42 O          65.8797   95.1783   11.4629 O.3     1  UNL1       -0.3286
     43 C          65.6632   95.7278   10.0841 C.3     1  UNL1        0.1471
     44 C          64.6983   96.8560    9.8692 C.3     1  UNL1        0.0348
     45 C          66.4116   95.1490    8.9200 C.3     1  UNL1        0.1668
     46 O          66.1950   95.6986    7.5411 O.3     1  UNL1       -0.3795
     47 C          67.3765   94.0209    9.1348 C.3     1  UNL1        0.1714
     48 O          68.1249   93.4421    7.9707 O.3     1  UNL1       -0.3794
     49 C          67.5930   93.4714   10.5136 C.3     1  UNL1        0.1964
     50 O          68.5579   92.3432   10.7284 O.3     1  UNL1       -0.3775
     51 H          65.5453   96.4178    7.5781 H       1  UNL1        0.2105
     52 H          68.5551   94.1566    7.4755 H       1  UNL1        0.2105
     53 H          68.5787   92.1103   11.6698 H       1  UNL1        0.2106
@<TRIPOS>BOND
     1    37    38    1
     2    38    29    1
     3    29    30   ar
     4    30    31   ar
     5    31    14    1
     6    14    15   ar
     7    15    16   ar
     8    16    17   ar
     9    17    18   ar
    10    18    19    1
    11    18    20   ar
    12    20    21   ar
    13    21    22    1
    14    21    23   ar
    15    23    24   ar
    16    24    25    2
    17    24    26   ar
    18    26    13    1
    19     1    13    1
    20     1     2    1
    21     2     3    1
    22     3    39    1
    23    39    40    1
    24    41    40    1
    25    41    42    1
    26    42    43    1
    27    43    44    1
    28    43    45    1
    29    45    46    1
    30    45    47    1
    31    47    48    1
    32    47    49    1
    33    49    50    1
    34     3     4    1
    35     4     5    1
    36     4     6    1
    37     6     7    1
    38     6     8    1
    39     8     9    1
    40    31    32   ar
    41    32    33   ar
    42    33    34   ar
    43    34    35    1
    44    34    29   ar
    45    26    14   ar
    46     8     1    1
    47    23    16   ar
    48    49    41    1
    49    19    27    1
    50    22    28    1
    51    46    51    1
    52    48    52    1
    53    50    53    1
    54     5    10    1
    55     7    11    1
    56     9    12    1
    57    35    36    1
@<TRIPOS>MOLECULE
*****
 53 57 0 0 0
SMALL
GASTEIGER

@<TRIPOS>ATOM
      1 C          64.0754   88.3587   14.1727 C.3     1  UNL1        0.3182
      2 O          64.1278   86.8611   14.2419 O.3     1  UNL1       -0.3160
      3 C          63.7659   86.1561   15.5154 C.3     1  UNL1        0.1776
      4 C          63.3517   86.9485   16.7198 C.3     1  UNL1        0.1695
      5 O          62.9898   86.2435   17.9933 O.3     1  UNL1       -0.3794
      6 C          63.2993   88.4460   16.6506 C.3     1  UNL1        0.1728
      7 O          62.8851   89.2384   17.8549 O.3     1  UNL1       -0.3793
      8 C          63.6612   89.1511   15.3770 C.3     1  UNL1        0.2105
      9 O          63.6088   90.6485   15.3078 O.3     1  UNL1       -0.3766
     10 H          63.0761   85.2855   17.8683 H       1  UNL1        0.2105
     11 H          62.6868   88.6339   18.5872 H       1  UNL1        0.2105
     12 H          63.8707   90.9405   14.4207 H       1  UNL1        0.2107
     13 O          64.4373   89.0637   12.8991 O.3     1  UNL1       -0.4441
     14 C          63.3002   90.4811   11.0422 C.ar    1  UNL1        0.1823
     15 O          62.2882   90.6097    9.9425 O.2     1  UNL1       -0.4500
     16 C          61.4013   89.4495    9.6000 C.ar    1  UNL1        0.1545
     17 C          60.3893   89.5781    8.5003 C.ar    1  UNL1        0.0744
     18 C          59.5024   88.4179    8.1578 C.ar    1  UNL1        0.1397
     19 O          58.4904   88.5464    7.0581 O.3     1  UNL1       -0.5053
     20 C          59.6275   87.1291    8.9150 C.ar    1  UNL1        0.0735
     21 C          60.6395   87.0005   10.0147 C.ar    1  UNL1        0.1428
     22 O          60.7645   85.7117   10.7719 O.3     1  UNL1       -0.5052
     23 C          61.5263   88.1607   10.3572 C.ar    1  UNL1        0.1104
     24 C          62.5384   88.0321   11.4569 C.ar    1  UNL1        0.2382
     25 O          62.6634   86.7433   12.2141 O.2     1  UNL1       -0.2830
     26 C          63.4253   89.1923   11.7994 C.ar    1  UNL1        0.2144
     27 H          58.4123   89.3515    6.5850 H       1  UNL1        0.2922
     28 H          60.2105   84.9869   10.5580 H       1  UNL1        0.2922
     29 C          65.5460   92.9939   13.1379 C.ar    1  UNL1        0.1722
     30 C          64.6591   91.8337   12.7954 C.ar    1  UNL1        0.0432
     31 C          64.1871   91.6413   11.3847 C.ar    1  UNL1        0.0409
     32 C          64.6021   92.6091   10.3164 C.ar    1  UNL1        0.0064
     33 C          65.4890   93.7693   10.6589 C.ar    1  UNL1        0.0399
     34 C          65.9609   93.9617   12.0696 C.ar    1  UNL1        0.1677
     35 O          66.8479   95.1219   12.4122 O.3     1  UNL1       -0.5029
     36 H          67.1071   95.7265   11.7449 H       1  UNL1        0.2923
     37 C          67.0310   92.2484   15.1352 C.3     1  UNL1        0.2526
     38 O          66.0180   93.1864   14.5487 O.3     1  UNL1       -0.4684
     39 C          63.8183   84.6586   15.5846 C.3     1  UNL1        0.1769
     40 O          62.6734   83.8431   15.0611 O.3     1  UNL1       -0.3259
     41 C          62.8237   83.0735   13.7824 C.3     1  UNL1        0.2657
     42 O          63.2376   83.7803   12.5258 O.3     1  UNL1       -0.3286
     43 C          63.3879   83.0107   11.2471 C.3     1  UNL1        0.1471
     44 C          63.8019   83.7176    9.9905 C.3     1  UNL1        0.0348
     45 C          63.1243   81.5342   11.2250 C.3     1  UNL1        0.1668
     46 O          63.2746   80.7646    9.9463 O.3     1  UNL1       -0.3795
     47 C          62.7103   80.8274   12.4816 C.3     1  UNL1        0.1714
     48 O          62.4467   79.3509   12.4594 O.3     1  UNL1       -0.3794
     49 C          62.5600   81.5970   13.7602 C.3     1  UNL1        0.1964
     50 O          62.1461   80.8901   15.0169 O.3     1  UNL1       -0.3775
     51 H          63.5455   81.3673    9.2361 H       1  UNL1        0.2105
     52 H          63.2006   78.8938   12.0550 H       1  UNL1        0.2105
     53 H          62.0968   81.5284   15.7456 H       1  UNL1        0.2106
@<TRIPOS>BOND
     1    37    38    1
     2    38    29    1
     3    29    30   ar
     4    30    31   ar
     5    31    14    1
     6    14    15   ar
     7    15    16   ar
     8    16    17   ar
     9    17    18   ar
    10    18    19    1
    11    18    20   ar
    12    20    21   ar
    13    21    22    1
    14    21    23   ar
    15    23    24   ar
    16    24    25    2
    17    24    26   ar
    18    26    13    1
    19     1    13    1
    20     1     2    1
    21     2     3    1
    22     3    39    1
    23    39    40    1
    24    41    40    1
    25    41    42    1
    26    42    43    1
    27    43    44    1
    28    43    45    1
    29    45    46    1
    30    45    47    1
    31    47    48    1
    32    47    49    1
    33    49    50    1
    34     3     4    1
    35     4     5    1
    36     4     6    1
    37     6     7    1
    38     6     8    1
    39     8     9    1
    40    31    32   ar
    41    32    33   ar
    42    33    34   ar
    43    34    35    1
    44    34    29   ar
    45    26    14   ar
    46     8     1    1
    47    23    16   ar
    48    49    41    1
    49    19    27    1
    50    22    28    1
    51    46    51    1
    52    48    52    1
    53    50    53    1
    54     5    10    1
    55     7    11    1
    56     9    12    1
    57    35    36    1
@<TRIPOS>MOLECULE
*****
 53 57 0 0 0
SMALL
GASTEIGER

@<TRIPOS>ATOM
      1 C          63.8052   89.9361   13.3783 C.3     1  UNL1        0.3182
      2 O          65.0920   90.6456   13.0769 O.3     1  UNL1       -0.3160
      3 C          65.7402   91.5007   14.1251 C.3     1  UNL1        0.1776
      4 C          65.1016   91.6463   15.4746 C.3     1  UNL1        0.1695
      5 O          65.7498   92.5015   16.5227 O.3     1  UNL1       -0.3794
      6 C          63.8149   90.9368   15.7758 C.3     1  UNL1        0.1728
      7 O          63.1763   91.0825   17.1253 O.3     1  UNL1       -0.3793
      8 C          63.1667   90.0817   14.7277 C.3     1  UNL1        0.2105
      9 O          61.8799   89.3722   15.0290 O.3     1  UNL1       -0.3766
     10 H          66.5673   92.8843   16.1675 H       1  UNL1        0.2105
     11 H          63.7198   91.6646   17.6790 H       1  UNL1        0.2105
     12 H          61.5992   88.8670   14.2500 H       1  UNL1        0.2107
     13 O          63.1570   89.0809   12.3302 O.3     1  UNL1       -0.4441
     14 C          62.2496   86.7618   11.5895 C.ar    1  UNL1        0.1823
     15 O          62.1853   85.2741   11.7697 O.2     1  UNL1       -0.4500
     16 C          62.9641   84.6176   12.8709 C.ar    1  UNL1        0.1545
     17 C          62.8997   83.1299   13.0511 C.ar    1  UNL1        0.0744
     18 C          63.6785   82.4735   14.1523 C.ar    1  UNL1        0.1397
     19 O          63.6142   80.9857   14.3326 O.3     1  UNL1       -0.5053
     20 C          64.5216   83.3048   15.0732 C.ar    1  UNL1        0.0735
     21 C          64.5859   84.7925   14.8930 C.ar    1  UNL1        0.1428
     22 O          65.4290   85.6238   15.8140 O.3     1  UNL1       -0.5052
     23 C          63.8071   85.4489   13.7919 C.ar    1  UNL1        0.1104
     24 C          63.8714   86.9367   13.6116 C.ar    1  UNL1        0.2382
     25 O          64.7145   87.7680   14.5325 O.2     1  UNL1       -0.2830
     26 C          63.0927   87.5931   12.5104 C.ar    1  UNL1        0.2144
     27 H          63.0875   80.4664   13.7573 H       1  UNL1        0.2922
     28 H          65.9154   85.2138   16.5019 H       1  UNL1        0.2922
     29 C          60.0119   89.3893    9.6302 C.ar    1  UNL1        0.1722
     30 C          60.7906   88.7329   10.7314 C.ar    1  UNL1        0.0432
     31 C          61.4708   87.4183   10.4883 C.ar    1  UNL1        0.0409
     32 C          61.3723   86.7602    9.1440 C.ar    1  UNL1        0.0064
     33 C          60.5936   87.4166    8.0428 C.ar    1  UNL1        0.0399
     34 C          59.9134   88.7312    8.2859 C.ar    1  UNL1        0.1677
     35 O          59.1346   89.3877    7.1847 O.3     1  UNL1       -0.5029
     36 H          59.0731   88.9766    6.3449 H       1  UNL1        0.2923
     37 C          59.0537   91.1566   11.2761 C.3     1  UNL1        0.2526
     38 O          59.3317   90.7040    9.8733 O.3     1  UNL1       -0.4684
     39 C          67.0270   92.2102   13.8238 C.3     1  UNL1        0.1769
     40 O          67.0051   93.6290   13.3375 O.3     1  UNL1       -0.3259
     41 C          67.0875   93.9197   11.8682 C.3     1  UNL1        0.2657
     42 O          67.8119   92.9744   10.9562 O.3     1  UNL1       -0.3286
     43 C          67.8943   93.2651    9.4869 C.3     1  UNL1        0.1471
     44 C          68.6187   92.3198    8.5749 C.3     1  UNL1        0.0348
     45 C          67.2523   94.5009    8.9297 C.3     1  UNL1        0.1668
     46 O          67.3347   94.7915    7.4604 O.3     1  UNL1       -0.3795
     47 C          66.5279   95.4461    9.8417 C.3     1  UNL1        0.1714
     48 O          65.8859   96.6820    9.2845 O.3     1  UNL1       -0.3794
     49 C          66.4455   95.1555   11.3110 C.3     1  UNL1        0.1964
     50 O          65.7211   96.1008   12.2230 O.3     1  UNL1       -0.3775
     51 H          67.8334   94.0864    7.0188 H       1  UNL1        0.2105
     52 H          65.3170   96.4417    8.5365 H       1  UNL1        0.2105
     53 H          65.7620   95.7672   13.1330 H       1  UNL1        0.2106
@<TRIPOS>BOND
     1    37    38    1
     2    38    29    1
     3    29    30   ar
     4    30    31   ar
     5    31    14    1
     6    14    15   ar
     7    15    16   ar
     8    16    17   ar
     9    17    18   ar
    10    18    19    1
    11    18    20   ar
    12    20    21   ar
    13    21    22    1
    14    21    23   ar
    15    23    24   ar
    16    24    25    2
    17    24    26   ar
    18    26    13    1
    19     1    13    1
    20     1     2    1
    21     2     3    1
    22     3    39    1
    23    39    40    1
    24    41    40    1
    25    41    42    1
    26    42    43    1
    27    43    44    1
    28    43    45    1
    29    45    46    1
    30    45    47    1
    31    47    48    1
    32    47    49    1
    33    49    50    1
    34     3     4    1
    35     4     5    1
    36     4     6    1
    37     6     7    1
    38     6     8    1
    39     8     9    1
    40    31    32   ar
    41    32    33   ar
    42    33    34   ar
    43    34    35    1
    44    34    29   ar
    45    26    14   ar
    46     8     1    1
    47    23    16   ar
    48    49    41    1
    49    19    27    1
    50    22    28    1
    51    46    51    1
    52    48    52    1
    53    50    53    1
    54     5    10    1
    55     7    11    1
    56     9    12    1
    57    35    36    1
@<TRIPOS>MOLECULE
*****
 53 57 0 0 0
SMALL
GASTEIGER

@<TRIPOS>ATOM
      1 C          63.9638   88.2061   13.9774 C.3     1  UNL1        0.3182
      2 O          64.4605   89.5006   13.4049 O.3     1  UNL1       -0.3160
      3 C          64.5272   90.7257   14.2678 C.3     1  UNL1        0.1776
      4 C          64.0972   90.6564   15.7032 C.3     1  UNL1        0.1695
      5 O          64.1640   91.8816   16.5661 O.3     1  UNL1       -0.3794
      6 C          63.6006   89.3620   16.2757 C.3     1  UNL1        0.1728
      7 O          63.1707   89.2927   17.7111 O.3     1  UNL1       -0.3793
      8 C          63.5339   88.1368   15.4128 C.3     1  UNL1        0.2105
      9 O          63.0373   86.8424   15.9853 O.3     1  UNL1       -0.3766
     10 H          64.5045   92.6257   16.0453 H       1  UNL1        0.2105
     11 H          63.2763   90.1647   18.1227 H       1  UNL1        0.2105
     12 H          63.0581   86.1565   15.2997 H       1  UNL1        0.2107
     13 O          63.8971   86.9810   13.1146 O.3     1  UNL1       -0.4441
     14 C          62.4023   85.5731   11.5228 C.ar    1  UNL1        0.1823
     15 O          61.4084   85.4984   10.4019 O.2     1  UNL1       -0.4500
     16 C          60.9151   86.7570    9.7518 C.ar    1  UNL1        0.1545
     17 C          59.9212   86.6824    8.6309 C.ar    1  UNL1        0.0744
     18 C          59.4279   87.9410    7.9808 C.ar    1  UNL1        0.1397
     19 O          58.4339   87.8663    6.8599 O.3     1  UNL1       -0.5053
     20 C          59.9287   89.2742    8.4516 C.ar    1  UNL1        0.0735
     21 C          60.9226   89.3489    9.5725 C.ar    1  UNL1        0.1428
     22 O          61.4233   90.6822   10.0434 O.3     1  UNL1       -0.5052
     23 C          61.4158   88.0903   10.2226 C.ar    1  UNL1        0.1104
     24 C          62.4098   88.1649   11.3435 C.ar    1  UNL1        0.2382
     25 O          62.9106   89.4982   11.8144 O.2     1  UNL1       -0.2830
     26 C          62.9031   86.9063   11.9936 C.ar    1  UNL1        0.2144
     27 H          58.1211   87.0335    6.5657 H       1  UNL1        0.2922
     28 H          61.1152   91.4684    9.6373 H       1  UNL1        0.2922
     29 C          62.5044   82.3074   13.7755 C.ar    1  UNL1        0.1722
     30 C          62.0111   83.5660   13.1255 C.ar    1  UNL1        0.0432
     31 C          62.8956   84.3144   12.1729 C.ar    1  UNL1        0.0409
     32 C          64.2734   83.8043   11.8704 C.ar    1  UNL1        0.0064
     33 C          64.7667   82.5458   12.5205 C.ar    1  UNL1        0.0399
     34 C          63.8822   81.7973   13.4730 C.ar    1  UNL1        0.1677
     35 O          64.3755   80.5387   14.1232 O.3     1  UNL1       -0.5029
     36 H          65.2362   80.2200   13.9342 H       1  UNL1        0.2923
     37 C          60.5747   80.6208   14.2015 C.3     1  UNL1        0.2526
     38 O          61.6200   81.5589   14.7282 O.3     1  UNL1       -0.4684
     39 C          65.0238   92.0201   13.6953 C.3     1  UNL1        0.1769
     40 O          66.3258   92.0608   12.9516 O.3     1  UNL1       -0.3259
     41 C          66.5312   93.0614   11.8530 C.3     1  UNL1        0.2657
     42 O          65.9544   94.4404   11.9772 O.3     1  UNL1       -0.3286
     43 C          66.1598   95.4409   10.8786 C.3     1  UNL1        0.1471
     44 C          65.5830   96.8201   11.0028 C.3     1  UNL1        0.0348
     45 C          66.9418   95.0623    9.6559 C.3     1  UNL1        0.1668
     46 O          67.1471   96.0628    8.5573 O.3     1  UNL1       -0.3795
     47 C          67.5185   93.6832    9.5317 C.3     1  UNL1        0.1714
     48 O          68.3006   93.3046    8.3090 O.3     1  UNL1       -0.3794
     49 C          67.3132   92.6827   10.6303 C.3     1  UNL1        0.1964
     50 O          67.8899   91.3036   10.5062 O.3     1  UNL1       -0.3775
     51 H          66.7131   96.8972    8.7946 H       1  UNL1        0.2105
     52 H          68.9897   93.9679    8.1478 H       1  UNL1        0.2105
     53 H          67.6667   90.7874   11.2965 H       1  UNL1        0.2106
@<TRIPOS>BOND
     1    37    38    1
     2    38    29    1
     3    29    30   ar
     4    30    31   ar
     5    31    14    1
     6    14    15   ar
     7    15    16   ar
     8    16    17   ar
     9    17    18   ar
    10    18    19    1
    11    18    20   ar
    12    20    21   ar
    13    21    22    1
    14    21    23   ar
    15    23    24   ar
    16    24    25    2
    17    24    26   ar
    18    26    13    1
    19     1    13    1
    20     1     2    1
    21     2     3    1
    22     3    39    1
    23    39    40    1
    24    41    40    1
    25    41    42    1
    26    42    43    1
    27    43    44    1
    28    43    45    1
    29    45    46    1
    30    45    47    1
    31    47    48    1
    32    47    49    1
    33    49    50    1
    34     3     4    1
    35     4     5    1
    36     4     6    1
    37     6     7    1
    38     6     8    1
    39     8     9    1
    40    31    32   ar
    41    32    33   ar
    42    33    34   ar
    43    34    35    1
    44    34    29   ar
    45    26    14   ar
    46     8     1    1
    47    23    16   ar
    48    49    41    1
    49    19    27    1
    50    22    28    1
    51    46    51    1
    52    48    52    1
    53    50    53    1
    54     5    10    1
    55     7    11    1
    56     9    12    1
    57    35    36    1
@<TRIPOS>MOLECULE
*****
 53 57 0 0 0
SMALL
GASTEIGER

@<TRIPOS>ATOM
      1 C          64.0611   88.8307   14.1411 C.3     1  UNL1        0.3182
      2 O          64.1653   87.3824   14.5176 O.3     1  UNL1       -0.3160
      3 C          63.7591   86.9332   15.8900 C.3     1  UNL1        0.1776
      4 C          63.2488   87.9323   16.8857 C.3     1  UNL1        0.1695
      5 O          62.8427   87.4831   18.2581 O.3     1  UNL1       -0.3794
      6 C          63.1447   89.3805   16.5092 C.3     1  UNL1        0.1728
      7 O          62.6344   90.3795   17.5049 O.3     1  UNL1       -0.3793
      8 C          63.5508   89.8297   15.1369 C.3     1  UNL1        0.2105
      9 O          63.4467   91.2779   14.7603 O.3     1  UNL1       -0.3766
     10 H          62.9714   86.5249   18.3359 H       1  UNL1        0.2105
     11 H          62.4181   89.9269   18.3352 H       1  UNL1        0.2105
     12 H          63.7468   91.3965   13.8456 H       1  UNL1        0.2107
     13 O          64.4673   89.2799   12.7688 O.3     1  UNL1       -0.4441
     14 C          63.3179   90.6199   10.8626 C.ar    1  UNL1        0.1823
     15 O          62.2958   90.7050    9.7681 O.2     1  UNL1       -0.4500
     16 C          61.4006   89.5350    9.4853 C.ar    1  UNL1        0.1545
     17 C          60.3784   89.6200    8.3909 C.ar    1  UNL1        0.0744
     18 C          59.4833   88.4501    8.1081 C.ar    1  UNL1        0.1397
     19 O          58.4610   88.5351    7.0136 O.3     1  UNL1       -0.5053
     20 C          59.6104   87.1951    8.9199 C.ar    1  UNL1        0.0735
     21 C          60.6326   87.1101   10.0143 C.ar    1  UNL1        0.1428
     22 O          60.7596   85.8551   10.8260 O.3     1  UNL1       -0.5052
     23 C          61.5277   88.2800   10.2970 C.ar    1  UNL1        0.1104
     24 C          62.5499   88.1950   11.3915 C.ar    1  UNL1        0.2382
     25 O          62.6770   86.9400   12.2033 O.2     1  UNL1       -0.2830
     26 C          63.4450   89.3649   11.6743 C.ar    1  UNL1        0.2144
     27 H          58.3816   89.3190    6.5066 H       1  UNL1        0.2922
     28 H          60.2005   85.1243   10.6494 H       1  UNL1        0.2922
     29 C          65.7435   93.1089   12.7787 C.ar    1  UNL1        0.1722
     30 C          64.8483   91.9390   12.4960 C.ar    1  UNL1        0.0432
     31 C          64.2131   91.7899   11.1454 C.ar    1  UNL1        0.0409
     32 C          64.4730   92.8107   10.0775 C.ar    1  UNL1        0.0064
     33 C          65.3681   93.9807   10.3602 C.ar    1  UNL1        0.0399
     34 C          66.0033   94.1298   11.7108 C.ar    1  UNL1        0.1677
     35 O          66.8985   95.2997   11.9936 O.3     1  UNL1       -0.5029
     36 H          67.0609   95.9374   11.3265 H       1  UNL1        0.2923
     37 C          66.9124   92.0523   14.8444 C.3     1  UNL1        0.2526
     38 O          66.3788   93.2581   14.1294 O.3     1  UNL1       -0.4684
     39 C          63.8633   85.4850   16.2665 C.3     1  UNL1        0.1769
     40 O          62.6902   84.5719   16.0666 O.3     1  UNL1       -0.3259
     41 C          62.7468   83.4955   15.0234 C.3     1  UNL1        0.2657
     42 O          61.6913   82.4304   14.9867 O.3     1  UNL1       -0.3286
     43 C          61.7480   81.3540   13.9435 C.3     1  UNL1        0.1471
     44 C          60.6924   80.2889   13.9067 C.3     1  UNL1        0.0348
     45 C          62.8602   81.3428   12.9371 C.3     1  UNL1        0.1668
     46 O          62.9169   80.2663   11.8940 O.3     1  UNL1       -0.3795
     47 C          63.9158   82.4078   12.9739 C.3     1  UNL1        0.1714
     48 O          65.0280   82.3965   11.9676 O.3     1  UNL1       -0.3794
     49 C          63.8591   83.4842   14.0171 C.3     1  UNL1        0.1964
     50 O          64.9147   84.5493   14.0539 O.3     1  UNL1       -0.3775
     51 H          62.1660   79.6634   12.0104 H       1  UNL1        0.2105
     52 H          64.6554   82.3298   11.0745 H       1  UNL1        0.2105
     53 H          64.7307   85.1617   14.7833 H       1  UNL1        0.2106
@<TRIPOS>BOND
     1    37    38    1
     2    38    29    1
     3    29    30   ar
     4    30    31   ar
     5    31    14    1
     6    14    15   ar
     7    15    16   ar
     8    16    17   ar
     9    17    18   ar
    10    18    19    1
    11    18    20   ar
    12    20    21   ar
    13    21    22    1
    14    21    23   ar
    15    23    24   ar
    16    24    25    2
    17    24    26   ar
    18    26    13    1
    19     1    13    1
    20     1     2    1
    21     2     3    1
    22     3    39    1
    23    39    40    1
    24    41    40    1
    25    41    42    1
    26    42    43    1
    27    43    44    1
    28    43    45    1
    29    45    46    1
    30    45    47    1
    31    47    48    1
    32    47    49    1
    33    49    50    1
    34     3     4    1
    35     4     5    1
    36     4     6    1
    37     6     7    1
    38     6     8    1
    39     8     9    1
    40    31    32   ar
    41    32    33   ar
    42    33    34   ar
    43    34    35    1
    44    34    29   ar
    45    26    14   ar
    46     8     1    1
    47    23    16   ar
    48    49    41    1
    49    19    27    1
    50    22    28    1
    51    46    51    1
    52    48    52    1
    53    50    53    1
    54     5    10    1
    55     7    11    1
    56     9    12    1
    57    35    36    1
@<TRIPOS>MOLECULE
*****
 53 57 0 0 0
SMALL
GASTEIGER

@<TRIPOS>ATOM
      1 C          62.8383   88.6578   14.4276 C.3     1  UNL1        0.3182
      2 O          63.6752   87.5614   13.8381 O.3     1  UNL1       -0.3160
      3 C          64.2480   86.4957   14.7248 C.3     1  UNL1        0.1776
      4 C          63.9838   86.5265   16.2011 C.3     1  UNL1        0.1695
      5 O          64.5566   85.4608   17.0879 O.3     1  UNL1       -0.3794
      6 C          63.1469   87.6229   16.7906 C.3     1  UNL1        0.1728
      7 O          62.8828   87.6536   18.2668 O.3     1  UNL1       -0.3793
      8 C          62.5741   88.6885   15.9038 C.3     1  UNL1        0.2105
      9 O          61.7372   89.7849   16.4933 O.3     1  UNL1       -0.3766
     10 H          65.0676   84.8344   16.5519 H       1  UNL1        0.2105
     11 H          63.3221   86.8992   18.6896 H       1  UNL1        0.2105
     12 H          61.4482   90.3855   15.7886 H       1  UNL1        0.2107
     13 O          62.2655   89.7234   13.5409 O.3     1  UNL1       -0.4441
     14 C          63.1168   90.4882   11.2084 C.ar    1  UNL1        0.1823
     15 O          64.0274   91.3376   10.3723 O.2     1  UNL1       -0.4500
     16 C          64.9977   92.2718   11.0326 C.ar    1  UNL1        0.1545
     17 C          65.9083   93.1213   10.1965 C.ar    1  UNL1        0.0744
     18 C          66.8785   94.0554   10.8568 C.ar    1  UNL1        0.1397
     19 O          67.7892   94.9049   10.0207 O.3     1  UNL1       -0.5053
     20 C          66.9379   94.1402   12.3533 C.ar    1  UNL1        0.0735
     21 C          66.0273   93.2908   13.1894 C.ar    1  UNL1        0.1428
     22 O          66.0867   93.3755   14.6858 O.3     1  UNL1       -0.5052
     23 C          65.0571   92.3566   12.5290 C.ar    1  UNL1        0.1104
     24 C          64.1464   91.5071   13.3651 C.ar    1  UNL1        0.2382
     25 O          64.2058   91.5919   14.8615 O.2     1  UNL1       -0.2830
     26 C          63.1762   90.5729   12.7048 C.ar    1  UNL1        0.2144
     27 H          67.7521   94.8520    9.0860 H       1  UNL1        0.2922
     28 H          66.6928   93.9591   15.0983 H       1  UNL1        0.2922
     29 C          61.3179   87.1380   10.0725 C.ar    1  UNL1        0.1722
     30 C          62.2881   88.0721   10.7328 C.ar    1  UNL1        0.0432
     31 C          62.1465   89.5539   10.5480 C.ar    1  UNL1        0.0409
     32 C          61.0348   90.1016    9.7030 C.ar    1  UNL1        0.0064
     33 C          60.0646   89.1674    9.0427 C.ar    1  UNL1        0.0399
     34 C          60.2062   87.6856    9.2274 C.ar    1  UNL1        0.1677
     35 O          59.2360   86.7514    8.5671 O.3     1  UNL1       -0.5029
     36 H          58.5415   87.0935    8.0392 H       1  UNL1        0.2923
     37 C          61.9716   85.1077   11.5560 C.3     1  UNL1        0.2526
     38 O          61.4595   85.6561   10.2572 O.3     1  UNL1       -0.4684
     39 C          65.0849   85.3994   14.1354 C.3     1  UNL1        0.1769
     40 O          64.7829   83.9669   14.4623 O.3     1  UNL1       -0.3259
     41 C          64.2674   83.0468   13.3957 C.3     1  UNL1        0.2657
     42 O          64.6159   83.2953   11.9581 O.3     1  UNL1       -0.3286
     43 C          64.1004   82.3752   10.8915 C.3     1  UNL1        0.1471
     44 C          64.4490   82.6237    9.4538 C.3     1  UNL1        0.0348
     45 C          63.2364   81.2065   11.2625 C.3     1  UNL1        0.1668
     46 O          62.7209   80.2864   10.1959 O.3     1  UNL1       -0.3795
     47 C          62.8878   80.9580   12.7001 C.3     1  UNL1        0.1714
     48 O          62.0237   79.7894   13.0711 O.3     1  UNL1       -0.3794
     49 C          63.4033   81.8781   13.7667 C.3     1  UNL1        0.1964
     50 O          63.0547   81.6296   15.2044 O.3     1  UNL1       -0.3775
     51 H          63.0366   80.5869    9.3293 H       1  UNL1        0.2105
     52 H          62.3840   78.9816   12.6730 H       1  UNL1        0.2105
     53 H          63.4652   82.3113   15.7591 H       1  UNL1        0.2106
@<TRIPOS>BOND
     1    37    38    1
     2    38    29    1
     3    29    30   ar
     4    30    31   ar
     5    31    14    1
     6    14    15   ar
     7    15    16   ar
     8    16    17   ar
     9    17    18   ar
    10    18    19    1
    11    18    20   ar
    12    20    21   ar
    13    21    22    1
    14    21    23   ar
    15    23    24   ar
    16    24    25    2
    17    24    26   ar
    18    26    13    1
    19     1    13    1
    20     1     2    1
    21     2     3    1
    22     3    39    1
    23    39    40    1
    24    41    40    1
    25    41    42    1
    26    42    43    1
    27    43    44    1
    28    43    45    1
    29    45    46    1
    30    45    47    1
    31    47    48    1
    32    47    49    1
    33    49    50    1
    34     3     4    1
    35     4     5    1
    36     4     6    1
    37     6     7    1
    38     6     8    1
    39     8     9    1
    40    31    32   ar
    41    32    33   ar
    42    33    34   ar
    43    34    35    1
    44    34    29   ar
    45    26    14   ar
    46     8     1    1
    47    23    16   ar
    48    49    41    1
    49    19    27    1
    50    22    28    1
    51    46    51    1
    52    48    52    1
    53    50    53    1
    54     5    10    1
    55     7    11    1
    56     9    12    1
    57    35    36    1
