@<TRIPOS>MOLECULE
*****
 45 50 0 0 0
SMALL
GASTEIGER

@<TRIPOS>ATOM
      1 C          59.6914   90.0680    6.1822 C.ar    1  UNL1        0.1348
      2 C          59.1825   88.6585    6.2478 C.ar    1  UNL1        0.0346
      3 C          59.6142   87.7565    7.3658 C.ar    1  UNL1        0.0065
      4 C          60.5549   88.2639    8.4182 C.ar    1  UNL1        0.0432
      5 C          61.0638   89.6734    8.3526 C.ar    1  UNL1        0.1256
      6 N          60.6320   90.5754    7.2346 N.ar    1  UNL1       -0.2222
      7 C          60.9866   87.3618    9.5362 C.ar    1  UNL1        0.0850
      8 C          60.5818   87.4855   10.9752 C.ar    1  UNL1        0.0991
      9 N          61.2439   86.3778   11.7399 N.ar    1  UNL1       -0.2265
     10 C          62.0580   85.5696   10.7734 C.ar    1  UNL1        0.1474
     11 C          62.9235   84.3584   10.9575 C.ar    1  UNL1        0.0332
     12 C          63.6300   83.7554    9.7797 C.ar    1  UNL1       -0.0174
     13 C          64.4955   82.5443    9.9638 C.3     1  UNL1        0.0312
     14 C          63.4710   84.3635    8.4177 C.ar    1  UNL1        0.0149
     15 C          62.6055   85.5747    8.2336 C.ar    1  UNL1        0.0811
     16 N          61.8989   86.1777    9.4115 N.ar    1  UNL1       -0.2888
     17 C          59.6742   88.5329   11.5490 C.ar    1  UNL1        0.0222
     18 C          58.6614   88.1589   12.5905 C.ar    1  UNL1        0.0222
     19 C          57.7538   89.2063   13.1642 C.ar    1  UNL1        0.0989
     20 N          57.8589   90.6277   12.6965 N.ar    1  UNL1       -0.2423
     21 C          58.8715   91.0016   11.6550 C.ar    1  UNL1        0.0989
     22 C          59.7792   89.9542   11.0813 C.ar    1  UNL1        0.0222
     23 C          60.2878   91.6464    4.2067 C.2     1  UNL1        0.2414
     24 O          61.7477   91.4208    4.4671 O.2     1  UNL1       -0.2733
     25 N          59.2597   90.9700    5.0642 N.am    1  UNL1       -0.2682
     26 H          58.3015   91.1181    4.8933 H       1  UNL1        0.1563
     27 C          59.8561   92.5485    3.0887 C.3     1  UNL1        0.1319
     28 C          59.8325   94.0347    3.2906 C.3     1  UNL1        0.0270
     29 C          59.8709   92.6282    0.4919 C.3     1  UNL1        0.0862
     30 N          59.4479   91.9644    1.7688 N.3     1  UNL1       -0.2902
     31 H          59.8149   91.0131    1.7416 H       1  UNL1        0.1237
     32 C          62.0045   90.1808    9.4051 C.1     1  UNL1       -0.0404
     33 C          62.9451   90.6884   10.4575 C.1     1  UNL1       -0.0583
     34 C          63.8858   91.1959   11.5100 C.ar    1  UNL1        0.0421
     35 C          65.1575   91.8838   11.1106 C.ar    1  UNL1        0.0097
     36 C          66.0981   92.3912   12.1631 C.ar    1  UNL1        0.0179
     37 C          65.7670   92.2107   13.6149 C.ar    1  UNL1        0.0625
     38 C          64.4953   91.5228   14.0143 C.ar    1  UNL1        0.0166
     39 C          64.1643   91.3423   15.4661 C.ar    1  UNL1        0.0063
     40 C          65.1049   91.8498   16.5186 C.ar    1  UNL1        0.0608
     41 C          66.3766   92.5378   16.1192 C.ar    1  UNL1        0.2610
     42 O          67.3172   93.0452   17.1717 O.2     1  UNL1       -0.2670
     43 N          66.7077   92.7182   14.6674 N.ar    1  UNL1       -0.2935
     44 C          67.9794   93.4062   14.2680 C.3     1  UNL1        0.1335
     45 C          63.5547   91.0154   12.9618 C.ar    1  UNL1        0.0097
@<TRIPOS>BOND
     1    29    30    1
     2    30    27    1
     3    27    28    1
     4    27    23    1
     5    23    24    2
     6    23    25   am
     7    25     1    1
     8     1     2   ar
     9     2     3   ar
    10     3     4   ar
    11     4     7    1
    12     7     8   ar
    13     8    17    1
    14    17    18   ar
    15    18    19   ar
    16    19    20   ar
    17    20    21   ar
    18    21    22   ar
    19     8     9   ar
    20     9    10   ar
    21    10    11   ar
    22    11    12   ar
    23    12    13    1
    24    12    14   ar
    25    14    15   ar
    26    15    16   ar
    27     4     5   ar
    28     5    32    1
    29    32    33    3
    30    33    34    1
    31    34    35   ar
    32    35    36   ar
    33    36    37   ar
    34    37    38   ar
    35    38    39   ar
    36    39    40   ar
    37    40    41   ar
    38    41    42    2
    39    41    43   ar
    40    43    44    1
    41    38    45   ar
    42     5     6   ar
    43     6     1   ar
    44    16     7   ar
    45    45    34   ar
    46    22    17   ar
    47    16    10   ar
    48    43    37   ar
    49    30    31    1
    50    25    26    1
@<TRIPOS>MOLECULE
*****
 45 50 0 0 0
SMALL
GASTEIGER

@<TRIPOS>ATOM
      1 C          59.7608   89.8730    6.4259 C.ar    1  UNL1        0.1348
      2 C          59.2764   88.4539    6.4631 C.ar    1  UNL1        0.0346
      3 C          59.7104   87.5422    7.5723 C.ar    1  UNL1        0.0065
      4 C          60.6287   88.0495    8.6443 C.ar    1  UNL1        0.0432
      5 C          61.1131   89.4686    8.6071 C.ar    1  UNL1        0.1256
      6 N          60.6791   90.3804    7.4979 N.ar    1  UNL1       -0.2222
      7 C          61.0627   87.1378    9.7535 C.ar    1  UNL1        0.0850
      8 C          60.6406   87.2335   11.1897 C.ar    1  UNL1        0.0991
      9 N          61.3120   86.1251   11.9451 N.ar    1  UNL1       -0.2265
     10 C          62.1491   85.3443   10.9758 C.ar    1  UNL1        0.1474
     11 C          63.0317   84.1442   11.1515 C.ar    1  UNL1        0.0332
     12 C          63.7603   83.5701    9.9727 C.ar    1  UNL1       -0.0174
     13 C          64.6429   82.3701   10.1483 C.3     1  UNL1        0.0312
     14 C          63.6062   84.1959    8.6181 C.ar    1  UNL1        0.0149
     15 C          62.7236   85.3959    8.4425 C.ar    1  UNL1        0.0811
     16 N          61.9950   85.9701    9.6213 N.ar    1  UNL1       -0.2888
     17 C          59.7104   88.2578   11.7689 C.ar    1  UNL1        0.0222
     18 C          58.7320   87.8645   12.8358 C.ar    1  UNL1        0.0222
     19 C          57.8018   88.8888   13.4149 C.ar    1  UNL1        0.0989
     20 N          57.8499   90.3065   12.9272 N.ar    1  UNL1       -0.2423
     21 C          58.8282   90.6998   11.8604 C.ar    1  UNL1        0.0989
     22 C          59.7584   89.6755   11.2813 C.ar    1  UNL1        0.0222
     23 C          60.3526   91.4482    4.4464 C.2     1  UNL1        0.2414
     24 O          61.8126   91.1999    4.6853 O.2     1  UNL1       -0.2733
     25 N          59.3268   90.7848    5.3167 N.am    1  UNL1       -0.2682
     26 H          58.3686   90.9478    5.1598 H       1  UNL1        0.1563
     27 C          59.9187   92.3600    3.3372 C.3     1  UNL1        0.1319
     28 C          58.4855   92.3732    2.8945 C.3     1  UNL1        0.0270
     29 C          61.7432   92.7453    1.5281 C.3     1  UNL1        0.0862
     30 N          60.9178   93.2586    2.6707 N.3     1  UNL1       -0.2902
     31 H          60.4010   94.0656    2.3213 H       1  UNL1        0.1237
     32 C          62.0315   89.9761    9.6791 C.1     1  UNL1       -0.0404
     33 C          62.9498   90.4835   10.7510 C.1     1  UNL1       -0.0583
     34 C          63.8682   90.9909   11.8230 C.ar    1  UNL1        0.0421
     35 C          64.0696   90.1936   13.0775 C.ar    1  UNL1        0.0097
     36 C          64.9879   90.7010   14.1494 C.ar    1  UNL1        0.0179
     37 C          65.7050   92.0058   13.9669 C.ar    1  UNL1        0.0625
     38 C          65.5036   92.8032   12.7125 C.ar    1  UNL1        0.0166
     39 C          66.2206   94.1080   12.5300 C.ar    1  UNL1        0.0063
     40 C          67.1390   94.6155   13.6019 C.ar    1  UNL1        0.0608
     41 C          67.3404   93.8181   14.8564 C.ar    1  UNL1        0.2610
     42 O          68.2587   94.3255   15.9283 O.2     1  UNL1       -0.2670
     43 N          66.6234   92.5133   15.0389 N.ar    1  UNL1       -0.2935
     44 C          66.8247   91.7159   16.2933 C.3     1  UNL1        0.1335
     45 C          64.5853   92.2958   11.6405 C.ar    1  UNL1        0.0097
@<TRIPOS>BOND
     1    29    30    1
     2    30    27    1
     3    27    28    1
     4    27    23    1
     5    23    24    2
     6    23    25   am
     7    25     1    1
     8     1     2   ar
     9     2     3   ar
    10     3     4   ar
    11     4     7    1
    12     7     8   ar
    13     8    17    1
    14    17    18   ar
    15    18    19   ar
    16    19    20   ar
    17    20    21   ar
    18    21    22   ar
    19     8     9   ar
    20     9    10   ar
    21    10    11   ar
    22    11    12   ar
    23    12    13    1
    24    12    14   ar
    25    14    15   ar
    26    15    16   ar
    27     4     5   ar
    28     5    32    1
    29    32    33    3
    30    33    34    1
    31    34    35   ar
    32    35    36   ar
    33    36    37   ar
    34    37    38   ar
    35    38    39   ar
    36    39    40   ar
    37    40    41   ar
    38    41    42    2
    39    41    43   ar
    40    43    44    1
    41    38    45   ar
    42     5     6   ar
    43     6     1   ar
    44    16     7   ar
    45    45    34   ar
    46    22    17   ar
    47    16    10   ar
    48    43    37   ar
    49    30    31    1
    50    25    26    1
