@<TRIPOS>MOLECULE
*****
 30 33 0 0 0
SMALL
GASTEIGER

@<TRIPOS>ATOM
      1 C          66.8623   93.2290   14.6779 C.3     1  UNL1        0.0900
      2 N          65.6981   92.3532   14.3204 N.3     1  UNL1       -0.2625
      3 C          65.0969   91.4464   15.3530 C.3     1  UNL1        0.0743
      4 C          63.9328   90.5707   14.9956 C.3     1  UNL1        0.0370
      5 C          63.3699   90.6017   13.6056 C.3     1  UNL1        0.0764
      6 C          63.9711   91.5085   12.5730 C.3     1  UNL1        0.0484
      7 C          65.1352   92.3843   12.9304 C.3     1  UNL1        0.1724
      8 C          65.7365   93.2911   11.8978 C.2     1  UNL1        0.3656
      9 N          66.3936   92.8593   10.6205 N.2     1  UNL1       -0.0337
     10 C          66.8494   94.0902    9.8945 C.2     1  UNL1        0.2318
     11 C          67.5578   94.2792    8.5859 C.2     1  UNL1        0.0498
     12 C          67.8907   95.6608    8.1060 C.2     1  UNL1       -0.0002
     13 C          67.5153   96.8534    8.9347 C.2     1  UNL1       -0.0172
     14 C          66.8069   96.6644   10.2433 C.3     1  UNL1        0.1037
     15 C          66.4740   95.2828   10.7232 C.2     1  UNL1        0.2175
     16 N          65.7861   94.7889   11.9613 N.2     1  UNL1       -0.0376
     17 N          62.2057   89.7259   13.2481 N.am    1  UNL1       -0.2902
     18 C          62.2317   88.9241   11.9807 C.2     1  UNL1        0.3044
     19 O          63.4219   88.9979   11.0708 O.2     1  UNL1       -0.2525
     20 N          61.0675   88.0483   11.6232 N.am    1  UNL1       -0.2683
     21 H          61.4245   89.6774   13.8453 H       1  UNL1        0.1509
     22 H          60.2863   87.9998   12.2205 H       1  UNL1        0.1564
     23 C          61.0935   87.2464   10.3559 C.ar    1  UNL1        0.0516
     24 C          59.9439   87.3240    9.3955 C.ar    1  UNL1        0.0154
     25 C          59.9699   86.5222    8.1281 C.ar    1  UNL1        0.0115
     26 C          61.1456   85.6427    7.8210 C.ar    1  UNL1        0.0685
     27 C          62.2952   85.5650    8.7814 C.ar    1  UNL1        0.0115
     28 C          62.2692   86.3669   10.0488 C.ar    1  UNL1        0.0154
     29 C          61.1716   84.8408    6.5537 C.1     1  UNL1        0.1004
     30 N          61.1976   84.0390    5.2863 N.1     1  UNL1       -0.1908
@<TRIPOS>BOND
     1     1     2    1
     2     2     3    1
     3     3     4    1
     4     4     5    1
     5     5    17    1
     6    17    18   am
     7    18    19    2
     8    18    20   am
     9    20    23    1
    10    23    24   ar
    11    24    25   ar
    12    25    26   ar
    13    26    29    1
    14    29    30    3
    15    26    27   ar
    16    27    28   ar
    17     5     6    1
    18     6     7    1
    19     7     8    1
    20     8     9    2
    21     9    10    1
    22    10    11    2
    23    11    12    1
    24    12    13    2
    25    13    14    1
    26    14    15    1
    27    15    16    2
    28     7     2    1
    29    16     8    1
    30    28    23   ar
    31    15    10    1
    32    17    21    1
    33    20    22    1
@<TRIPOS>MOLECULE
*****
 30 33 0 0 0
SMALL
GASTEIGER

@<TRIPOS>ATOM
      1 C          66.3934   93.0190   14.5714 C.3     1  UNL1        0.0900
      2 N          65.4931   91.9523   14.0222 N.3     1  UNL1       -0.2625
      3 C          64.9032   90.9229   14.9401 C.3     1  UNL1        0.0743
      4 C          64.0030   89.8562   14.3910 C.3     1  UNL1        0.0370
      5 C          63.6926   89.8188   12.9240 C.3     1  UNL1        0.0764
      6 C          64.2825   90.8481   12.0061 C.3     1  UNL1        0.0484
      7 C          65.1827   91.9149   12.5552 C.3     1  UNL1        0.1724
      8 C          65.7726   92.9442   11.6373 C.2     1  UNL1        0.3656
      9 N          65.7499   94.4292   11.8472 N.2     1  UNL1       -0.0337
     10 C          66.4520   95.0721   10.6880 C.2     1  UNL1        0.2318
     11 C          66.7345   96.5074   10.3562 C.2     1  UNL1        0.0498
     12 C          67.4737   96.8548    9.0981 C.2     1  UNL1       -0.0002
     13 C          67.9304   95.7670    8.1718 C.2     1  UNL1       -0.0172
     14 C          67.6479   94.3318    8.5035 C.3     1  UNL1        0.1037
     15 C          66.9087   93.9843    9.7616 C.2     1  UNL1        0.2175
     16 N          66.4888   92.6692   10.3483 N.2     1  UNL1       -0.0376
     17 N          62.7923   88.7520   12.3748 N.am    1  UNL1       -0.2902
     18 C          62.9986   87.3199   12.7700 C.2     1  UNL1        0.3044
     19 O          64.1051   86.9544   13.7144 O.2     1  UNL1       -0.2525
     20 N          62.0983   86.2531   12.2208 N.am    1  UNL1       -0.2683
     21 H          62.0660   88.9919   11.7549 H       1  UNL1        0.1509
     22 H          61.3720   86.4930   11.6009 H       1  UNL1        0.1564
     23 C          62.3046   84.8209   12.6160 C.ar    1  UNL1        0.0516
     24 C          62.6662   83.8009   11.5774 C.ar    1  UNL1        0.0154
     25 C          62.8725   82.3687   11.9726 C.ar    1  UNL1        0.0115
     26 C          62.7171   81.9565   13.4065 C.ar    1  UNL1        0.0685
     27 C          62.3555   82.9765   14.4452 C.ar    1  UNL1        0.0115
     28 C          62.1492   84.4088   14.0499 C.ar    1  UNL1        0.0154
     29 C          62.9234   80.5243   13.8018 C.1     1  UNL1        0.1004
     30 N          63.1297   79.0921   14.1970 N.1     1  UNL1       -0.1908
@<TRIPOS>BOND
     1     1     2    1
     2     2     3    1
     3     3     4    1
     4     4     5    1
     5     5    17    1
     6    17    18   am
     7    18    19    2
     8    18    20   am
     9    20    23    1
    10    23    24   ar
    11    24    25   ar
    12    25    26   ar
    13    26    29    1
    14    29    30    3
    15    26    27   ar
    16    27    28   ar
    17     5     6    1
    18     6     7    1
    19     7     8    1
    20     8     9    2
    21     9    10    1
    22    10    11    2
    23    11    12    1
    24    12    13    2
    25    13    14    1
    26    14    15    1
    27    15    16    2
    28     7     2    1
    29    16     8    1
    30    28    23   ar
    31    15    10    1
    32    17    21    1
    33    20    22    1
@<TRIPOS>MOLECULE
*****
 30 33 0 0 0
SMALL
GASTEIGER

@<TRIPOS>ATOM
      1 C          61.0832   86.3859   10.2645 C.3     1  UNL1        0.0900
      2 N          60.5379   87.3913    9.2941 N.3     1  UNL1       -0.2625
      3 C          59.5952   86.9547    8.2121 C.3     1  UNL1        0.0743
      4 C          59.0498   87.9601    7.2418 C.3     1  UNL1        0.0370
      5 C          59.4471   89.4021    7.3533 C.3     1  UNL1        0.0764
      6 C          60.3898   89.8388    8.4353 C.3     1  UNL1        0.0484
      7 C          60.9352   88.8334    9.4057 C.3     1  UNL1        0.1724
      8 C          61.8779   89.2701   10.4876 C.2     1  UNL1        0.3656
      9 N          62.6239   90.5705   10.5351 N.2     1  UNL1       -0.0337
     10 C          63.4472   90.5872   11.7889 C.2     1  UNL1        0.2318
     11 C          64.3822   91.6104   12.3622 C.2     1  UNL1        0.0498
     12 C          65.0799   91.3435   13.6629 C.2     1  UNL1       -0.0002
     13 C          64.8427   90.0533   14.3903 C.2     1  UNL1       -0.0172
     14 C          63.9077   89.0301   13.8171 C.3     1  UNL1        0.1037
     15 C          63.2099   89.2970   12.5164 C.2     1  UNL1        0.2175
     16 N          62.2400   88.4830   11.7121 N.2     1  UNL1       -0.0376
     17 N          58.9017   90.4076    6.3829 N.am    1  UNL1       -0.2902
     18 C          59.7577   90.9020    5.2547 C.2     1  UNL1        0.3044
     19 O          61.1591   90.3909    5.0969 O.2     1  UNL1       -0.2525
     20 N          59.2123   91.9075    4.2843 N.am    1  UNL1       -0.2683
     21 H          57.9820   90.7431    6.4865 H       1  UNL1        0.1509
     22 H          58.2926   92.2429    4.3879 H       1  UNL1        0.1564
     23 C          60.0683   92.4018    3.1561 C.ar    1  UNL1        0.0516
     24 C          59.4297   92.9589    1.9185 C.ar    1  UNL1        0.0154
     25 C          60.2856   93.4532    0.7903 C.ar    1  UNL1        0.0115
     26 C          61.7804   93.3905    0.8997 C.ar    1  UNL1        0.0685
     27 C          62.4191   92.8334    2.1373 C.ar    1  UNL1        0.0115
     28 C          61.5630   92.3391    3.2656 C.ar    1  UNL1        0.0154
     29 C          62.6364   93.8848   -0.2285 C.1     1  UNL1        0.1004
     30 N          63.4924   94.3791   -1.3567 N.1     1  UNL1       -0.1908
@<TRIPOS>BOND
     1     1     2    1
     2     2     3    1
     3     3     4    1
     4     4     5    1
     5     5    17    1
     6    17    18   am
     7    18    19    2
     8    18    20   am
     9    20    23    1
    10    23    24   ar
    11    24    25   ar
    12    25    26   ar
    13    26    29    1
    14    29    30    3
    15    26    27   ar
    16    27    28   ar
    17     5     6    1
    18     6     7    1
    19     7     8    1
    20     8     9    2
    21     9    10    1
    22    10    11    2
    23    11    12    1
    24    12    13    2
    25    13    14    1
    26    14    15    1
    27    15    16    2
    28     7     2    1
    29    16     8    1
    30    28    23   ar
    31    15    10    1
    32    17    21    1
    33    20    22    1
@<TRIPOS>MOLECULE
*****
 30 33 0 0 0
SMALL
GASTEIGER

@<TRIPOS>ATOM
      1 C          62.7922   91.2235   16.3164 C.3     1  UNL1        0.0900
      2 N          63.1994   89.7830   16.2199 N.3     1  UNL1       -0.2625
      3 C          62.7280   88.7997   17.2499 C.3     1  UNL1        0.0743
      4 C          63.1352   87.3593   17.1534 C.3     1  UNL1        0.0370
      5 C          64.0137   86.9022   16.0269 C.3     1  UNL1        0.0764
      6 C          64.4850   87.8854   14.9968 C.3     1  UNL1        0.0484
      7 C          64.0779   89.3259   15.0933 C.3     1  UNL1        0.1724
      8 C          64.5493   90.3091   14.0633 C.2     1  UNL1        0.3656
      9 N          65.7586   91.1896   14.1733 N.2     1  UNL1       -0.0337
     10 C          65.8508   92.0092   12.9204 C.2     1  UNL1        0.2318
     11 C          66.8353   93.0477   12.4705 C.2     1  UNL1        0.0498
     12 C          66.6673   93.7123   11.1363 C.2     1  UNL1       -0.0002
     13 C          65.5148   93.3383   10.2520 C.2     1  UNL1       -0.0172
     14 C          64.5304   92.2998   10.7018 C.3     1  UNL1        0.1037
     15 C          64.6984   91.6353   12.0360 C.2     1  UNL1        0.2175
     16 N          63.8940   90.5845   12.7424 N.2     1  UNL1       -0.0376
     17 N          64.4209   85.4617   15.9303 N.am    1  UNL1       -0.2902
     18 C          63.9811   84.6349   14.7586 C.2     1  UNL1        0.3044
     19 O          63.1340   85.2485   13.6834 O.2     1  UNL1       -0.2525
     20 N          64.3883   83.1944   14.6621 N.am    1  UNL1       -0.2683
     21 H          64.9768   85.0589   16.6360 H       1  UNL1        0.1509
     22 H          64.9442   82.7916   15.3677 H       1  UNL1        0.1564
     23 C          63.9484   82.3676   13.4904 C.ar    1  UNL1        0.0516
     24 C          63.1319   81.1288   13.7109 C.ar    1  UNL1        0.0154
     25 C          62.6920   80.3020   12.5392 C.ar    1  UNL1        0.0115
     26 C          63.0688   80.7139   11.1469 C.ar    1  UNL1        0.0685
     27 C          63.8853   81.9527   10.9264 C.ar    1  UNL1        0.0115
     28 C          64.3252   82.7795   12.0982 C.ar    1  UNL1        0.0154
     29 C          62.6289   79.8871    9.9752 C.1     1  UNL1        0.1004
     30 N          62.1891   79.0603    8.8035 N.1     1  UNL1       -0.1908
@<TRIPOS>BOND
     1     1     2    1
     2     2     3    1
     3     3     4    1
     4     4     5    1
     5     5    17    1
     6    17    18   am
     7    18    19    2
     8    18    20   am
     9    20    23    1
    10    23    24   ar
    11    24    25   ar
    12    25    26   ar
    13    26    29    1
    14    29    30    3
    15    26    27   ar
    16    27    28   ar
    17     5     6    1
    18     6     7    1
    19     7     8    1
    20     8     9    2
    21     9    10    1
    22    10    11    2
    23    11    12    1
    24    12    13    2
    25    13    14    1
    26    14    15    1
    27    15    16    2
    28     7     2    1
    29    16     8    1
    30    28    23   ar
    31    15    10    1
    32    17    21    1
    33    20    22    1
@<TRIPOS>MOLECULE
*****
 30 33 0 0 0
SMALL
GASTEIGER

@<TRIPOS>ATOM
      1 C          59.8616   85.9780    8.1886 C.3     1  UNL1        0.0900
      2 N          60.4488   87.2644    8.6891 N.3     1  UNL1       -0.2625
      3 C          59.9184   88.5755    8.1895 C.3     1  UNL1        0.0743
      4 C          60.5055   89.8618    8.6900 C.3     1  UNL1        0.0370
      5 C          61.6232   89.8371    9.6901 C.3     1  UNL1        0.0764
      6 C          62.1536   88.5260   10.1897 C.3     1  UNL1        0.0484
      7 C          61.5665   87.2396    9.6892 C.3     1  UNL1        0.1724
      8 C          62.0969   85.9285   10.1888 C.2     1  UNL1        0.3656
      9 N          63.0153   85.0069    9.4424 N.2     1  UNL1       -0.0337
     10 C          63.2881   83.8176   10.3148 C.2     1  UNL1        0.2318
     11 C          64.1224   82.5889   10.1046 C.2     1  UNL1        0.0498
     12 C          64.2069   81.5468   11.1801 C.2     1  UNL1       -0.0002
     13 C          63.4571   81.7334   12.4658 C.2     1  UNL1       -0.0172
     14 C          62.6229   82.9621   12.6760 C.3     1  UNL1        0.1037
     15 C          62.5384   84.0042   11.6005 C.2     1  UNL1        0.2175
     16 N          61.8022   85.3088   11.5226 N.2     1  UNL1       -0.0376
     17 N          62.2104   91.1235   10.1907 N.am    1  UNL1       -0.2902
     18 C          63.3139   91.0991   11.2063 C.2     1  UNL1        0.3044
     19 O          63.8303   89.7883   11.7215 O.2     1  UNL1       -0.2525
     20 N          63.9012   92.3854   11.7069 N.am    1  UNL1       -0.2683
     21 H          61.8715   91.9837    9.8525 H       1  UNL1        0.1509
     22 H          63.5623   93.2457   11.3687 H       1  UNL1        0.1564
     23 C          65.0047   92.3611   12.7225 C.ar    1  UNL1        0.0516
     24 C          64.9762   91.3574   13.8369 C.ar    1  UNL1        0.0154
     25 C          66.0798   91.3331   14.8526 C.ar    1  UNL1        0.0115
     26 C          67.2118   92.3123   14.7539 C.ar    1  UNL1        0.0685
     27 C          67.2402   93.3159   13.6394 C.ar    1  UNL1        0.0115
     28 C          66.1366   93.3403   12.6237 C.ar    1  UNL1        0.0154
     29 C          68.3153   92.2879   15.7695 C.1     1  UNL1        0.1004
     30 N          69.4188   92.2635   16.7852 N.1     1  UNL1       -0.1908
@<TRIPOS>BOND
     1     1     2    1
     2     2     3    1
     3     3     4    1
     4     4     5    1
     5     5    17    1
     6    17    18   am
     7    18    19    2
     8    18    20   am
     9    20    23    1
    10    23    24   ar
    11    24    25   ar
    12    25    26   ar
    13    26    29    1
    14    29    30    3
    15    26    27   ar
    16    27    28   ar
    17     5     6    1
    18     6     7    1
    19     7     8    1
    20     8     9    2
    21     9    10    1
    22    10    11    2
    23    11    12    1
    24    12    13    2
    25    13    14    1
    26    14    15    1
    27    15    16    2
    28     7     2    1
    29    16     8    1
    30    28    23   ar
    31    15    10    1
    32    17    21    1
    33    20    22    1
