@<TRIPOS>MOLECULE
*****
 41 46 0 0 0
SMALL
GASTEIGER

@<TRIPOS>ATOM
      1 C          60.7738   91.9108    3.5760 C.ar    1  UNL1        0.0907
      2 C          59.7034   92.5549    2.7456 C.ar    1  UNL1        0.1496
      3 O          58.3797   92.2617    3.3873 O.2     1  UNL1       -0.4533
      4 C          58.6319   91.4363    4.6141 C.ar    1  UNL1        0.1454
      5 C          57.7054   90.8542    5.6401 C.ar    1  UNL1        0.0375
      6 C          58.2585   90.0553    6.7827 C.ar    1  UNL1        0.0031
      7 C          59.7382   89.8384    6.8994 C.ar    1  UNL1       -0.0001
      8 C          60.6647   90.4205    5.8734 C.ar    1  UNL1        0.0033
      9 C          60.1115   91.2194    4.7307 C.ar    1  UNL1        0.0419
     10 C          59.9190   93.3523    1.4936 C.ar    1  UNL1        0.0349
     11 C          60.0186   94.8473    1.5643 C.ar    1  UNL1        0.0053
     12 C          60.2342   95.6447    0.3122 C.ar    1  UNL1        0.0297
     13 C          60.3501   94.9471   -1.0106 C.ar    1  UNL1        0.1401
     14 F          60.5657   95.7445   -2.2627 F       1  UNL1       -0.2042
     15 C          60.2505   93.4521   -1.0813 C.ar    1  UNL1        0.0297
     16 C          60.0350   92.6547    0.1708 C.ar    1  UNL1        0.0053
     17 C          60.2913   89.0394    8.0421 C.ar    1  UNL1       -0.0038
     18 C          61.0005   89.7321    9.1677 C.ar    1  UNL1        0.0042
     19 C          61.5537   88.9331   10.3104 C.ar    1  UNL1        0.0533
     20 C          61.3975   87.4413   10.3274 C.ar    1  UNL1        0.0042
     21 C          60.6882   86.7486    9.2017 C.ar    1  UNL1       -0.0041
     22 C          60.1351   87.5476    8.0591 C.ar    1  UNL1       -0.0218
     23 C          59.4258   86.8549    6.9334 C.3     1  UNL1        0.0310
     24 C          62.2629   89.6258   11.4360 C.2     1  UNL1        0.2461
     25 O          61.9919   91.0745   11.7145 O.2     1  UNL1       -0.2701
     26 N          63.2432   88.8698   12.2830 N.am    1  UNL1       -0.2976
     27 H          63.4211   87.9189   12.1001 H       1  UNL1        0.1500
     28 C          63.9525   89.5625   13.4086 C.3     1  UNL1        0.1092
     29 C          64.7327   90.6044   14.1541 C.3     1  UNL1        0.0274
     30 C          64.4029   90.8084   12.7051 C.3     1  UNL1        0.0274
     31 C          63.7484   88.5573   14.5030 C.ar    1  UNL1        0.1549
     32 N          63.2364   88.9996   15.8417 N.ar    1  UNL1       -0.2276
     33 C          63.0323   87.9942   16.9361 C.ar    1  UNL1        0.1019
     34 C          63.3403   86.5467   16.6918 C.ar    1  UNL1        0.0413
     35 C          63.8523   86.1044   15.3532 C.ar    1  UNL1        0.1019
     36 N          64.0564   87.1097   14.2587 N.ar    1  UNL1       -0.2276
     37 C          64.3013   93.1070    2.2063 C.3     1  UNL1        0.1109
     38 N          62.8274   93.0669    2.4822 N.am    1  UNL1       -0.2991
     39 C          62.2476   91.9509    3.3000 C.2     1  UNL1        0.2490
     40 O          63.1417   90.8753    3.8417 O.2     1  UNL1       -0.2700
     41 H          62.2407   93.7729    2.1267 H       1  UNL1        0.1498
@<TRIPOS>BOND
     1    37    38    1
     2    38    39   am
     3    39    40    2
     4    39     1    1
     5     1     2   ar
     6     2    10    1
     7    10    11   ar
     8    11    12   ar
     9    12    13   ar
    10    13    14    1
    11    13    15   ar
    12    15    16   ar
    13     2     3   ar
    14     3     4   ar
    15     4     5   ar
    16     5     6   ar
    17     6     7   ar
    18     7    17    1
    19    17    18   ar
    20    18    19   ar
    21    19    24    1
    22    24    25    2
    23    24    26   am
    24    26    28    1
    25    28    31    1
    26    31    32   ar
    27    32    33   ar
    28    33    34   ar
    29    34    35   ar
    30    35    36   ar
    31    28    29    1
    32    29    30    1
    33    19    20   ar
    34    20    21   ar
    35    21    22   ar
    36    22    23    1
    37     7     8   ar
    38     8     9   ar
    39     9     1   ar
    40    16    10   ar
    41     9     4   ar
    42    22    17   ar
    43    30    28    1
    44    36    31   ar
    45    38    41    1
    46    26    27    1
@<TRIPOS>MOLECULE
*****
 41 46 0 0 0
SMALL
GASTEIGER

@<TRIPOS>ATOM
      1 C          64.6195   91.4148   12.0879 C.ar    1  UNL1        0.0907
      2 C          64.8408   91.5397   13.5662 C.ar    1  UNL1        0.1496
      3 O          63.7830   90.7360   14.2627 O.2     1  UNL1       -0.4533
      4 C          62.9080   90.1144   13.2149 C.ar    1  UNL1        0.1454
      5 C          61.7072   89.2207   13.3110 C.ar    1  UNL1        0.0375
      6 C          61.0235   88.7464   12.0630 C.ar    1  UNL1        0.0031
      7 C          61.5404   89.1660   10.7189 C.ar    1  UNL1       -0.0001
      8 C          62.7412   90.0598   10.6227 C.ar    1  UNL1        0.0033
      9 C          63.4249   90.5340   11.8707 C.ar    1  UNL1        0.0419
     10 C          65.9289   92.3296   14.2312 C.ar    1  UNL1        0.0349
     11 C          66.7052   91.7293   15.3656 C.ar    1  UNL1        0.0053
     12 C          67.7932   92.5192   16.0307 C.ar    1  UNL1        0.0297
     13 C          68.1050   93.9093   15.5613 C.ar    1  UNL1        0.1401
     14 F          69.1930   94.6991   16.2263 F       1  UNL1       -0.2042
     15 C          67.3287   94.5095   14.4269 C.ar    1  UNL1        0.0297
     16 C          66.2406   93.7197   13.7618 C.ar    1  UNL1        0.0053
     17 C          60.8566   88.6917    9.4709 C.ar    1  UNL1       -0.0038
     18 C          60.4388   89.6800    8.4227 C.ar    1  UNL1        0.0042
     19 C          59.7550   89.2057    7.1747 C.ar    1  UNL1        0.0533
     20 C          59.4890   87.7431    6.9749 C.ar    1  UNL1        0.0042
     21 C          59.9068   86.7547    8.0231 C.ar    1  UNL1       -0.0041
     22 C          60.5906   87.2290    9.2710 C.ar    1  UNL1       -0.0218
     23 C          61.0085   86.2407   10.3192 C.3     1  UNL1        0.0310
     24 C          59.3372   90.1940    6.1266 C.2     1  UNL1        0.2461
     25 O          57.8808   90.4260    5.8526 O.2     1  UNL1       -0.2701
     26 N          60.3757   90.9504    5.3525 N.am    1  UNL1       -0.2976
     27 H          61.3316   90.7981    5.5323 H       1  UNL1        0.1500
     28 C          59.9579   91.9387    4.3043 C.3     1  UNL1        0.1092
     29 C          59.0965   92.8891    3.5267 C.3     1  UNL1        0.0274
     30 C          58.5355   92.1726    4.7191 C.3     1  UNL1        0.0274
     31 C          61.2352   92.0482    3.5256 C.ar    1  UNL1        0.1549
     32 N          62.3934   91.1536    3.8548 N.ar    1  UNL1       -0.2276
     33 C          63.6706   91.2631    3.0760 C.ar    1  UNL1        0.1019
     34 C          63.7898   92.2671    1.9679 C.ar    1  UNL1        0.0413
     35 C          62.6317   93.1615    1.6387 C.ar    1  UNL1        0.1019
     36 N          61.3543   93.0521    2.4175 N.ar    1  UNL1       -0.2276
     37 C          67.7543   92.4565    9.8883 C.3     1  UNL1        0.1109
     38 N          66.9264   91.8134   10.9611 N.am    1  UNL1       -0.2991
     39 C          65.4474   92.0579   11.0150 C.2     1  UNL1        0.2490
     40 O          64.7964   92.9455    9.9960 O.2     1  UNL1       -0.2700
     41 H          67.3538   91.2309   11.6299 H       1  UNL1        0.1498
@<TRIPOS>BOND
     1    37    38    1
     2    38    39   am
     3    39    40    2
     4    39     1    1
     5     1     2   ar
     6     2    10    1
     7    10    11   ar
     8    11    12   ar
     9    12    13   ar
    10    13    14    1
    11    13    15   ar
    12    15    16   ar
    13     2     3   ar
    14     3     4   ar
    15     4     5   ar
    16     5     6   ar
    17     6     7   ar
    18     7    17    1
    19    17    18   ar
    20    18    19   ar
    21    19    24    1
    22    24    25    2
    23    24    26   am
    24    26    28    1
    25    28    31    1
    26    31    32   ar
    27    32    33   ar
    28    33    34   ar
    29    34    35   ar
    30    35    36   ar
    31    28    29    1
    32    29    30    1
    33    19    20   ar
    34    20    21   ar
    35    21    22   ar
    36    22    23    1
    37     7     8   ar
    38     8     9   ar
    39     9     1   ar
    40    16    10   ar
    41     9     4   ar
    42    22    17   ar
    43    30    28    1
    44    36    31   ar
    45    38    41    1
    46    26    27    1
@<TRIPOS>MOLECULE
*****
 41 46 0 0 0
SMALL
GASTEIGER

@<TRIPOS>ATOM
      1 C          60.7838   91.9417    3.5565 C.ar    1  UNL1        0.0907
      2 C          59.7408   92.6339    2.7301 C.ar    1  UNL1        0.1496
      3 O          58.4032   92.3689    3.3550 O.2     1  UNL1       -0.4533
      4 C          58.6195   91.5129    4.5677 C.ar    1  UNL1        0.1454
      5 C          57.6669   90.9397    5.5746 C.ar    1  UNL1        0.0375
      6 C          58.1856   90.1026    6.7060 C.ar    1  UNL1        0.0031
      7 C          59.6569   89.8386    6.8305 C.ar    1  UNL1       -0.0001
      8 C          60.6095   90.4117    5.8236 C.ar    1  UNL1        0.0033
      9 C          60.0909   91.2489    4.6922 C.ar    1  UNL1        0.0419
     10 C          59.9913   93.4482    1.4955 C.ar    1  UNL1        0.0349
     11 C          60.1074   94.9405    1.5921 C.ar    1  UNL1        0.0053
     12 C          60.3580   95.7548    0.3575 C.ar    1  UNL1        0.0297
     13 C          60.4924   95.0767   -0.9737 C.ar    1  UNL1        0.1401
     14 F          60.7430   95.8910   -2.2083 F       1  UNL1       -0.2042
     15 C          60.3763   93.5844   -1.0703 C.ar    1  UNL1        0.0297
     16 C          60.1258   92.7701    0.1643 C.ar    1  UNL1        0.0053
     17 C          60.1756   89.0014    7.9619 C.ar    1  UNL1       -0.0038
     18 C          60.7143   89.6604    9.1969 C.ar    1  UNL1        0.0042
     19 C          61.2330   88.8232   10.3284 C.ar    1  UNL1        0.0533
     20 C          61.2129   87.3270   10.2248 C.ar    1  UNL1        0.0042
     21 C          60.6741   86.6679    8.9897 C.ar    1  UNL1       -0.0041
     22 C          60.1554   87.5051    7.8583 C.ar    1  UNL1       -0.0218
     23 C          59.6167   86.8460    6.6232 C.3     1  UNL1        0.0310
     24 C          61.7718   89.4823   11.5634 C.2     1  UNL1        0.2461
     25 O          60.8343   89.9211   12.6491 O.2     1  UNL1       -0.2701
     26 N          63.2479   89.7027   11.7128 N.am    1  UNL1       -0.2976
     27 H          63.8632   89.4147   11.0002 H       1  UNL1        0.1500
     28 C          63.7867   90.3618   12.9478 C.3     1  UNL1        0.1092
     29 C          64.0818   90.6132   14.3968 C.3     1  UNL1        0.0274
     30 C          63.2721   89.4168   13.9929 C.3     1  UNL1        0.0274
     31 C          64.4883   91.5356   12.3317 C.ar    1  UNL1        0.1549
     32 N          64.3523   91.8040   10.8621 N.ar    1  UNL1       -0.2276
     33 C          65.0540   92.9779   10.2460 C.ar    1  UNL1        0.1019
     34 C          65.8917   93.8834   11.0994 C.ar    1  UNL1        0.0413
     35 C          66.0277   93.6151   12.5688 C.ar    1  UNL1        0.1019
     36 N          65.3261   92.4412   13.1850 N.ar    1  UNL1       -0.2276
     37 C          64.3536   93.0412    2.2154 C.3     1  UNL1        0.1109
     38 N          62.8768   93.0406    2.4785 N.am    1  UNL1       -0.2991
     39 C          62.2605   91.9423    3.2934 C.2     1  UNL1        0.2490
     40 O          63.1211   90.8446    3.8451 O.2     1  UNL1       -0.2700
     41 H          62.3120   93.7611    2.1163 H       1  UNL1        0.1498
@<TRIPOS>BOND
     1    37    38    1
     2    38    39   am
     3    39    40    2
     4    39     1    1
     5     1     2   ar
     6     2    10    1
     7    10    11   ar
     8    11    12   ar
     9    12    13   ar
    10    13    14    1
    11    13    15   ar
    12    15    16   ar
    13     2     3   ar
    14     3     4   ar
    15     4     5   ar
    16     5     6   ar
    17     6     7   ar
    18     7    17    1
    19    17    18   ar
    20    18    19   ar
    21    19    24    1
    22    24    25    2
    23    24    26   am
    24    26    28    1
    25    28    31    1
    26    31    32   ar
    27    32    33   ar
    28    33    34   ar
    29    34    35   ar
    30    35    36   ar
    31    28    29    1
    32    29    30    1
    33    19    20   ar
    34    20    21   ar
    35    21    22   ar
    36    22    23    1
    37     7     8   ar
    38     8     9   ar
    39     9     1   ar
    40    16    10   ar
    41     9     4   ar
    42    22    17   ar
    43    30    28    1
    44    36    31   ar
    45    38    41    1
    46    26    27    1
@<TRIPOS>MOLECULE
*****
 41 46 0 0 0
SMALL
GASTEIGER

@<TRIPOS>ATOM
      1 C          60.4560   87.9318    8.8631 C.ar    1  UNL1        0.0907
      2 C          60.1813   88.0082    7.3905 C.ar    1  UNL1        0.1496
      3 O          60.8338   86.8270    6.7355 O.2     1  UNL1       -0.4533
      4 C          61.5118   86.0206    7.8033 C.ar    1  UNL1        0.1454
      5 C          62.3115   84.7529    7.7481 C.ar    1  UNL1        0.0375
      6 C          62.8778   84.1680    9.0079 C.ar    1  UNL1        0.0031
      7 C          62.6444   84.8508   10.3229 C.ar    1  UNL1       -0.0001
      8 C          61.8446   86.1186   10.3781 C.ar    1  UNL1        0.0033
      9 C          61.2783   86.7035    9.1183 C.ar    1  UNL1        0.0419
     10 C          59.3926   89.0778    6.6950 C.ar    1  UNL1        0.0349
     11 C          57.8936   89.0568    6.7449 C.ar    1  UNL1        0.0053
     12 C          57.1049   90.1264    6.0494 C.ar    1  UNL1        0.0297
     13 C          57.8151   91.2172    5.3040 C.ar    1  UNL1        0.1401
     14 F          57.0264   92.2868    4.6085 F       1  UNL1       -0.2042
     15 C          59.3141   91.2382    5.2540 C.ar    1  UNL1        0.0297
     16 C          60.1028   90.1686    5.9495 C.ar    1  UNL1        0.0053
     17 C          63.2107   84.2658   11.5827 C.ar    1  UNL1       -0.0038
     18 C          63.2799   85.0960   12.8301 C.ar    1  UNL1        0.0042
     19 C          63.8463   84.5111   14.0899 C.ar    1  UNL1        0.0533
     20 C          64.3434   83.0959   14.1023 C.ar    1  UNL1        0.0042
     21 C          64.2741   82.2657   12.8549 C.ar    1  UNL1       -0.0041
     22 C          63.7078   82.8507   11.5951 C.ar    1  UNL1       -0.0218
     23 C          63.6386   82.0205   10.3477 C.3     1  UNL1        0.0310
     24 C          63.9155   85.3412   15.3373 C.2     1  UNL1        0.2461
     25 O          65.0021   85.0963   16.3418 O.2     1  UNL1       -0.2701
     26 N          62.8980   86.4164   15.5801 N.am    1  UNL1       -0.2976
     27 H          62.1848   86.5771   14.9208 H       1  UNL1        0.1500
     28 C          62.9672   87.2465   16.8275 C.3     1  UNL1        0.1092
     29 C          62.8699   87.6258   18.2755 C.3     1  UNL1        0.0274
     30 C          62.5116   86.2363   17.8383 C.3     1  UNL1        0.0274
     31 C          63.4469   88.5451   16.2499 C.ar    1  UNL1        0.1549
     32 N          63.2290   89.8256   17.0001 N.ar    1  UNL1       -0.2276
     33 C          63.7087   91.1241   16.4224 C.ar    1  UNL1        0.1019
     34 C          64.4062   91.1422   15.0946 C.ar    1  UNL1        0.0413
     35 C          64.6240   89.8618   14.3444 C.ar    1  UNL1        0.1019
     36 N          64.1443   88.5631   14.9220 N.ar    1  UNL1       -0.2276
     37 C          59.0668   89.4034   12.2771 C.3     1  UNL1        0.1109
     38 N          59.5326   88.4234   11.2414 N.am    1  UNL1       -0.2991
     39 C          59.9903   88.9118    9.8989 C.2     1  UNL1        0.2490
     40 O          59.9821   90.3800    9.5923 O.2     1  UNL1       -0.2700
     41 H          59.5379   87.4598   11.4427 H       1  UNL1        0.1498
@<TRIPOS>BOND
     1    37    38    1
     2    38    39   am
     3    39    40    2
     4    39     1    1
     5     1     2   ar
     6     2    10    1
     7    10    11   ar
     8    11    12   ar
     9    12    13   ar
    10    13    14    1
    11    13    15   ar
    12    15    16   ar
    13     2     3   ar
    14     3     4   ar
    15     4     5   ar
    16     5     6   ar
    17     6     7   ar
    18     7    17    1
    19    17    18   ar
    20    18    19   ar
    21    19    24    1
    22    24    25    2
    23    24    26   am
    24    26    28    1
    25    28    31    1
    26    31    32   ar
    27    32    33   ar
    28    33    34   ar
    29    34    35   ar
    30    35    36   ar
    31    28    29    1
    32    29    30    1
    33    19    20   ar
    34    20    21   ar
    35    21    22   ar
    36    22    23    1
    37     7     8   ar
    38     8     9   ar
    39     9     1   ar
    40    16    10   ar
    41     9     4   ar
    42    22    17   ar
    43    30    28    1
    44    36    31   ar
    45    38    41    1
    46    26    27    1
@<TRIPOS>MOLECULE
*****
 41 46 0 0 0
SMALL
GASTEIGER

@<TRIPOS>ATOM
      1 C          61.6736   88.5663   10.2499 C.ar    1  UNL1        0.0907
      2 C          61.8817   87.1809   10.7860 C.ar    1  UNL1        0.1496
      3 O          61.1672   86.2216    9.8809 O.2     1  UNL1       -0.4533
      4 C          60.5176   87.0141    8.7855 C.ar    1  UNL1        0.1454
      5 C          59.6815   86.6034    7.6098 C.ar    1  UNL1        0.0375
      6 C          59.1584   87.6418    6.6622 C.ar    1  UNL1        0.0031
      7 C          59.4714   89.0910    6.8903 C.ar    1  UNL1       -0.0001
      8 C          60.3075   89.5017    8.0660 C.ar    1  UNL1        0.0033
      9 C          60.8306   88.4632    9.0135 C.ar    1  UNL1        0.0419
     10 C          62.6664   86.8185   12.0119 C.ar    1  UNL1        0.0349
     11 C          62.7530   85.3868   12.4509 C.ar    1  UNL1        0.0053
     12 C          63.5378   85.0244   13.6768 C.ar    1  UNL1        0.0297
     13 C          64.2359   86.0936   14.4637 C.ar    1  UNL1        0.1401
     14 F          65.0206   85.7312   15.6896 F       1  UNL1       -0.2042
     15 C          64.1493   87.5253   14.0247 C.ar    1  UNL1        0.0297
     16 C          63.3646   87.8877   12.7988 C.ar    1  UNL1        0.0053
     17 C          58.9482   90.1294    5.9426 C.ar    1  UNL1       -0.0038
     18 C          59.9024   90.9357    5.1123 C.ar    1  UNL1        0.0042
     19 C          59.3792   91.9742    4.1646 C.ar    1  UNL1        0.0533
     20 C          57.9019   92.2063    4.0473 C.ar    1  UNL1        0.0042
     21 C          56.9478   91.4000    4.8778 C.ar    1  UNL1       -0.0041
     22 C          57.4710   90.3616    5.8254 C.ar    1  UNL1       -0.0218
     23 C          56.5168   89.5553    6.6558 C.3     1  UNL1        0.0310
     24 C          60.3334   92.7804    3.3342 C.2     1  UNL1        0.2461
     25 O          60.2278   94.2765    3.3109 O.2     1  UNL1       -0.2701
     26 N          61.3930   92.0906    2.5272 N.am    1  UNL1       -0.2976
     27 H          61.4623   91.1087    2.5426 H       1  UNL1        0.1500
     28 C          62.3472   92.8968    1.6969 C.3     1  UNL1        0.1092
     29 C          63.6045   93.5987    1.2770 C.3     1  UNL1        0.0274
     30 C          63.5518   92.8763    2.5905 C.3     1  UNL1        0.0274
     31 C          61.4740   93.1974    0.5149 C.ar    1  UNL1        0.1549
     32 N          61.5780   94.5247   -0.1762 N.ar    1  UNL1       -0.2276
     33 C          60.7048   94.8252   -1.3583 C.ar    1  UNL1        0.1019
     34 C          59.7276   93.7986   -1.8492 C.ar    1  UNL1        0.0413
     35 C          59.6235   92.4715   -1.1581 C.ar    1  UNL1        0.1019
     36 N          60.4967   92.1708    0.0239 N.ar    1  UNL1       -0.2276
     37 C          63.9883   91.7302   10.8686 C.3     1  UNL1        0.1109
     38 N          63.4481   90.4640   10.2729 N.am    1  UNL1       -0.2991
     39 C          62.2138   89.8326   10.8456 C.2     1  UNL1        0.2490
     40 O          61.5198   90.4675   12.0140 O.2     1  UNL1       -0.2700
     41 H          63.9037   90.0473    9.5061 H       1  UNL1        0.1498
@<TRIPOS>BOND
     1    37    38    1
     2    38    39   am
     3    39    40    2
     4    39     1    1
     5     1     2   ar
     6     2    10    1
     7    10    11   ar
     8    11    12   ar
     9    12    13   ar
    10    13    14    1
    11    13    15   ar
    12    15    16   ar
    13     2     3   ar
    14     3     4   ar
    15     4     5   ar
    16     5     6   ar
    17     6     7   ar
    18     7    17    1
    19    17    18   ar
    20    18    19   ar
    21    19    24    1
    22    24    25    2
    23    24    26   am
    24    26    28    1
    25    28    31    1
    26    31    32   ar
    27    32    33   ar
    28    33    34   ar
    29    34    35   ar
    30    35    36   ar
    31    28    29    1
    32    29    30    1
    33    19    20   ar
    34    20    21   ar
    35    21    22   ar
    36    22    23    1
    37     7     8   ar
    38     8     9   ar
    39     9     1   ar
    40    16    10   ar
    41     9     4   ar
    42    22    17   ar
    43    30    28    1
    44    36    31   ar
    45    38    41    1
    46    26    27    1
@<TRIPOS>MOLECULE
*****
 41 46 0 0 0
SMALL
GASTEIGER

@<TRIPOS>ATOM
      1 C          62.3447   86.0974    9.6254 C.ar    1  UNL1        0.0907
      2 C          62.6248   84.8554    8.8322 C.ar    1  UNL1        0.1496
      3 O          63.3055   83.8714    9.7369 O.2     1  UNL1       -0.4533
      4 C          63.4461   84.5052   11.0892 C.ar    1  UNL1        0.1454
      5 C          64.0380   84.0073   12.3743 C.ar    1  UNL1        0.0375
      6 C          64.0362   84.8851   13.5906 C.ar    1  UNL1        0.0031
      7 C          63.4424   86.2609   13.5217 C.ar    1  UNL1       -0.0001
      8 C          62.8504   86.7587   12.2365 C.ar    1  UNL1        0.0033
      9 C          62.8523   85.8809   11.0203 C.ar    1  UNL1        0.0419
     10 C          62.2841   84.6361    7.3880 C.ar    1  UNL1        0.0349
     11 C          60.8694   84.3384    6.9880 C.ar    1  UNL1        0.0053
     12 C          60.5287   84.1190    5.5438 C.ar    1  UNL1        0.0297
     13 C          61.6027   84.1973    4.4996 C.ar    1  UNL1        0.1401
     14 F          61.2620   83.9779    3.0553 F       1  UNL1       -0.2042
     15 C          63.0173   84.4950    4.8996 C.ar    1  UNL1        0.0297
     16 C          63.3581   84.7144    6.3438 C.ar    1  UNL1        0.0053
     17 C          63.4406   87.1387   14.7380 C.ar    1  UNL1       -0.0038
     18 C          63.9763   88.5373   14.6544 C.ar    1  UNL1        0.0042
     19 C          63.9744   89.4151   15.8707 C.ar    1  UNL1        0.0533
     20 C          63.4369   88.8944   17.1707 C.ar    1  UNL1        0.0042
     21 C          62.9012   87.4957   17.2543 C.ar    1  UNL1       -0.0041
     22 C          62.9030   86.6179   16.0380 C.ar    1  UNL1       -0.0218
     23 C          62.3673   85.2193   16.1216 C.3     1  UNL1        0.0310
     24 C          64.5101   90.8137   15.7871 C.2     1  UNL1        0.2461
     25 O          63.8011   91.9318   16.4921 O.2     1  UNL1       -0.2701
     26 N          65.7549   91.0941   14.9985 N.am    1  UNL1       -0.2976
     27 H          66.2203   90.3603   14.5358 H       1  UNL1        0.1500
     28 C          66.2906   92.4927   14.9149 C.3     1  UNL1        0.1092
     29 C          66.9327   93.7833   15.3296 C.3     1  UNL1        0.0274
     30 C          66.7829   92.6675   16.3210 C.3     1  UNL1        0.0274
     31 C          65.9844   92.8035   13.4798 C.ar    1  UNL1        0.1549
     32 N          65.1612   91.8503   12.6650 N.ar    1  UNL1       -0.2276
     33 C          64.8550   92.1613   11.2299 C.ar    1  UNL1        0.1019
     34 C          65.3719   93.4254   10.6095 C.ar    1  UNL1        0.0413
     35 C          66.1950   94.3785   11.4243 C.ar    1  UNL1        0.1019
     36 N          66.5012   94.0677   12.8594 N.ar    1  UNL1       -0.2276
     37 C          59.7211   88.4748    7.8324 C.3     1  UNL1        0.1109
     38 N          60.3912   87.2342    8.3442 N.am    1  UNL1       -0.2991
     39 C          61.6747   87.3380    9.1137 C.2     1  UNL1        0.2490
     40 O          62.2880   88.6823    9.3713 O.2     1  UNL1       -0.2700
     41 H          59.9886   86.3518    8.1750 H       1  UNL1        0.1498
@<TRIPOS>BOND
     1    37    38    1
     2    38    39   am
     3    39    40    2
     4    39     1    1
     5     1     2   ar
     6     2    10    1
     7    10    11   ar
     8    11    12   ar
     9    12    13   ar
    10    13    14    1
    11    13    15   ar
    12    15    16   ar
    13     2     3   ar
    14     3     4   ar
    15     4     5   ar
    16     5     6   ar
    17     6     7   ar
    18     7    17    1
    19    17    18   ar
    20    18    19   ar
    21    19    24    1
    22    24    25    2
    23    24    26   am
    24    26    28    1
    25    28    31    1
    26    31    32   ar
    27    32    33   ar
    28    33    34   ar
    29    34    35   ar
    30    35    36   ar
    31    28    29    1
    32    29    30    1
    33    19    20   ar
    34    20    21   ar
    35    21    22   ar
    36    22    23    1
    37     7     8   ar
    38     8     9   ar
    39     9     1   ar
    40    16    10   ar
    41     9     4   ar
    42    22    17   ar
    43    30    28    1
    44    36    31   ar
    45    38    41    1
    46    26    27    1
