@<TRIPOS>MOLECULE
*****
 29 32 0 0 0
SMALL
GASTEIGER

@<TRIPOS>ATOM
      1 O          62.8597   91.1148   16.9159 O.2     1  UNL1       -0.2719
      2 C          63.5834   90.3765   15.8291 C.2     1  UNL1        0.2569
      3 N          63.6580   88.8787   15.8611 N.am    1  UNL1       -0.2772
      4 C          63.0088   88.1193   16.9799 C.3     1  UNL1        0.0952
      5 C          63.0834   86.6214   17.0119 C.3     1  UNL1        0.0410
      6 C          63.8071   85.8831   15.9251 C.3     1  UNL1        0.0722
      7 C          64.4563   86.6427   14.8063 C.3     1  UNL1        0.0410
      8 C          64.3818   88.1405   14.7743 C.3     1  UNL1        0.0952
      9 C          64.2327   91.1360   14.7103 C.3     1  UNL1        0.2096
     10 O          63.4944   91.3513   13.4225 O.3     1  UNL1       -0.3719
     11 H          64.0522   91.8566   12.8106 H       1  UNL1        0.2114
     12 C          65.6202   91.6802   14.8794 C.ar    1  UNL1        0.0131
     13 C          66.6435   91.4733   13.8022 C.ar    1  UNL1       -0.0010
     14 C          68.0310   92.0176   13.9714 C.ar    1  UNL1        0.0065
     15 C          68.3953   92.7687   15.2176 C.ar    1  UNL1        0.0345
     16 BR         69.7828   93.3130   15.3866 Br      1  UNL1       -0.0490
     17 C          67.3721   92.9757   16.2947 C.ar    1  UNL1        0.0065
     18 C          65.9845   92.4314   16.1255 C.ar    1  UNL1       -0.0010
     19 N          63.8816   84.3853   15.9571 N.pl3   1  UNL1       -0.3369
     20 H          64.1205   83.9220   16.7923 H       1  UNL1        0.1465
     21 C          63.5922   83.5933   14.7165 C.2     1  UNL1        0.0262
     22 C          62.4751   82.5924   14.7093 C.2     1  UNL1        0.0118
     23 C          62.1857   81.8004   13.4686 C.2     1  UNL1        0.0216
     24 C          63.0134   82.0095   12.2353 C.2     1  UNL1        0.1008
     25 N          62.9638   81.3801   10.8747 N.2     1  UNL1       -0.1482
     26 N          64.0502   81.9921   10.0410 N.2     1  UNL1       -0.1467
     27 C          64.7713   82.9997   10.8864 C.2     1  UNL1        0.1198
     28 C          64.1305   83.0105   12.2426 C.2     1  UNL1        0.0238
     29 C          64.4199   83.8024   13.4832 C.3     1  UNL1        0.0703
@<TRIPOS>BOND
     1     1     2    2
     2     2     9    1
     3     9    10    1
     4     9    12    1
     5    12    13   ar
     6    13    14   ar
     7    14    15   ar
     8    15    16    1
     9    15    17   ar
    10    17    18   ar
    11     2     3   am
    12     3     4    1
    13     4     5    1
    14     5     6    1
    15     6    19    1
    16    19    21    1
    17    21    22    2
    18    22    23    1
    19    23    24    2
    20    24    25    1
    21    25    26    2
    22    26    27    1
    23    27    28    2
    24    28    29    1
    25     6     7    1
    26     7     8    1
    27    18    12   ar
    28     8     3    1
    29    29    21    1
    30    28    24    1
    31    10    11    1
    32    19    20    1
@<TRIPOS>MOLECULE
*****
 29 32 0 0 0
SMALL
GASTEIGER

@<TRIPOS>ATOM
      1 O          61.9464   86.3441   12.3982 O.2     1  UNL1       -0.2719
      2 C          61.8538   87.5664   11.5337 C.2     1  UNL1        0.2569
      3 N          62.6938   88.7698   11.8439 N.am    1  UNL1       -0.2772
      4 C          63.6264   88.7510   13.0184 C.3     1  UNL1        0.0952
      5 C          64.4664   89.9544   13.3286 C.3     1  UNL1        0.0410
      6 C          64.3738   91.1767   12.4641 C.3     1  UNL1        0.0722
      7 C          63.4411   91.1956   11.2894 C.3     1  UNL1        0.0410
      8 C          62.6010   89.9922   10.9793 C.3     1  UNL1        0.0952
      9 C          60.9211   87.5853   10.3591 C.3     1  UNL1        0.2096
     10 O          59.7234   88.4884   10.3668 O.3     1  UNL1       -0.3719
     11 H          59.2303   88.3785    9.5388 H       1  UNL1        0.2114
     12 C          61.1861   86.7012    9.1767 C.ar    1  UNL1        0.0131
     13 C          60.0913   86.4188    8.1910 C.ar    1  UNL1       -0.0010
     14 C          60.3563   85.5346    7.0086 C.ar    1  UNL1        0.0065
     15 C          61.7161   84.9328    6.8120 C.ar    1  UNL1        0.0345
     16 BR         61.9811   84.0486    5.6296 Br      1  UNL1       -0.0490
     17 C          62.8110   85.2151    7.7977 C.ar    1  UNL1        0.0065
     18 C          62.5459   86.0993    8.9801 C.ar    1  UNL1       -0.0010
     19 N          65.2138   92.3801   12.7742 N.pl3   1  UNL1       -0.3369
     20 H          65.2902   92.7014   13.7017 H       1  UNL1        0.1465
     21 C          65.9374   93.0941   11.6711 C.2     1  UNL1        0.0262
     22 C          66.8526   92.3328   10.7587 C.2     1  UNL1        0.0118
     23 C          67.5761   93.0468    9.6556 C.2     1  UNL1        0.0216
     24 C          67.3844   94.5222    9.4650 C.2     1  UNL1        0.1008
     25 N          67.9592   95.4891    8.4727 N.2     1  UNL1       -0.1482
     26 N          67.3992   96.8481    8.7719 N.2     1  UNL1       -0.1467
     27 C          66.4783   96.7211    9.9491 C.2     1  UNL1        0.1198
     28 C          66.4691   95.2836   10.3775 C.2     1  UNL1        0.0238
     29 C          65.7456   94.5696   11.4805 C.3     1  UNL1        0.0703
@<TRIPOS>BOND
     1     1     2    2
     2     2     9    1
     3     9    10    1
     4     9    12    1
     5    12    13   ar
     6    13    14   ar
     7    14    15   ar
     8    15    16    1
     9    15    17   ar
    10    17    18   ar
    11     2     3   am
    12     3     4    1
    13     4     5    1
    14     5     6    1
    15     6    19    1
    16    19    21    1
    17    21    22    2
    18    22    23    1
    19    23    24    2
    20    24    25    1
    21    25    26    2
    22    26    27    1
    23    27    28    2
    24    28    29    1
    25     6     7    1
    26     7     8    1
    27    18    12   ar
    28     8     3    1
    29    29    21    1
    30    28    24    1
    31    10    11    1
    32    19    20    1
@<TRIPOS>MOLECULE
*****
 29 32 0 0 0
SMALL
GASTEIGER

@<TRIPOS>ATOM
      1 O          62.3650   84.3567   16.8571 O.2     1  UNL1       -0.2719
      2 C          63.2763   84.9113   15.8026 C.2     1  UNL1        0.2569
      3 N          63.5168   86.3897   15.7212 N.am    1  UNL1       -0.2772
      4 C          62.8461   87.3133   16.6943 C.3     1  UNL1        0.0952
      5 C          63.0867   88.7918   16.6129 C.3     1  UNL1        0.0410
      6 C          63.9979   89.3464   15.5583 C.3     1  UNL1        0.0722
      7 C          64.6686   88.4226   14.5853 C.3     1  UNL1        0.0410
      8 C          64.4281   86.9443   14.6667 C.3     1  UNL1        0.0952
      9 C          63.9470   83.9877   14.8295 C.3     1  UNL1        0.2096
     10 O          64.8622   82.9089   15.3282 O.3     1  UNL1       -0.3719
     11 H          65.2095   82.4058   14.5751 H       1  UNL1        0.2114
     12 C          63.7025   84.1427   13.3577 C.ar    1  UNL1        0.0131
     13 C          62.6465   85.0890   12.8684 C.ar    1  UNL1       -0.0010
     14 C          62.4020   85.2440   11.3966 C.ar    1  UNL1        0.0065
     15 C          63.2135   84.4527   10.4141 C.ar    1  UNL1        0.0345
     16 BR         62.9689   84.6077    8.9423 Br      1  UNL1       -0.0490
     17 C          64.2694   83.5063   10.9033 C.ar    1  UNL1        0.0065
     18 C          64.5139   83.3514   12.3752 C.ar    1  UNL1       -0.0010
     19 N          64.2385   90.8248   15.4770 N.pl3   1  UNL1       -0.3369
     20 H          63.8084   91.4298   16.1236 H       1  UNL1        0.1465
     21 C          65.1343   91.3812   14.4101 C.2     1  UNL1        0.0262
     22 C          66.6009   91.5502   14.6752 C.2     1  UNL1        0.0118
     23 C          67.4967   92.1066   13.6084 C.2     1  UNL1        0.0216
     24 C          66.9257   92.4941   12.2765 C.2     1  UNL1        0.1008
     25 N          67.5572   93.0646   11.0414 N.2     1  UNL1       -0.1482
     26 N          66.4809   93.2482   10.0130 N.2     1  UNL1       -0.1467
     27 C          65.1841   92.7912   10.6125 C.2     1  UNL1        0.1198
     28 C          65.4590   92.3251   12.0115 C.2     1  UNL1        0.0238
     29 C          64.5633   91.7687   13.0783 C.3     1  UNL1        0.0703
@<TRIPOS>BOND
     1     1     2    2
     2     2     9    1
     3     9    10    1
     4     9    12    1
     5    12    13   ar
     6    13    14   ar
     7    14    15   ar
     8    15    16    1
     9    15    17   ar
    10    17    18   ar
    11     2     3   am
    12     3     4    1
    13     4     5    1
    14     5     6    1
    15     6    19    1
    16    19    21    1
    17    21    22    2
    18    22    23    1
    19    23    24    2
    20    24    25    1
    21    25    26    2
    22    26    27    1
    23    27    28    2
    24    28    29    1
    25     6     7    1
    26     7     8    1
    27    18    12   ar
    28     8     3    1
    29    29    21    1
    30    28    24    1
    31    10    11    1
    32    19    20    1
@<TRIPOS>MOLECULE
*****
 29 32 0 0 0
SMALL
GASTEIGER

@<TRIPOS>ATOM
      1 O          60.1144   86.6735    9.2616 O.2     1  UNL1       -0.2719
      2 C          61.4716   86.6592    9.9002 C.2     1  UNL1        0.2569
      3 N          61.8415   87.7150   10.8993 N.am    1  UNL1       -0.2772
      4 C          60.8544   88.7852   11.2599 C.3     1  UNL1        0.0952
      5 C          61.2244   89.8411   12.2591 C.3     1  UNL1        0.0410
      6 C          62.5816   89.8267   12.8976 C.3     1  UNL1        0.0722
      7 C          63.5688   88.7564   12.5370 C.3     1  UNL1        0.0410
      8 C          63.1988   87.7006   11.5379 C.3     1  UNL1        0.0952
      9 C          62.4588   85.5889    9.5396 C.3     1  UNL1        0.2096
     10 O          63.1268   85.6063    8.1967 O.3     1  UNL1       -0.3719
     11 H          63.7306   84.8505    8.1261 H       1  UNL1        0.2114
     12 C          62.7781   84.5013   10.5220 C.ar    1  UNL1        0.0131
     13 C          63.6077   83.3262   10.0967 C.ar    1  UNL1       -0.0010
     14 C          63.9269   82.2386   11.0791 C.ar    1  UNL1        0.0065
     15 C          63.4165   82.3260   12.4869 C.ar    1  UNL1        0.0345
     16 BR         63.7358   81.2384   13.4693 Br      1  UNL1       -0.0490
     17 C          62.5869   83.5011   12.9123 C.ar    1  UNL1        0.0065
     18 C          62.2677   84.5887   11.9298 C.ar    1  UNL1       -0.0010
     19 N          62.9515   90.8826   13.8968 N.pl3   1  UNL1       -0.3369
     20 H          62.2781   91.2160   14.5328 H       1  UNL1        0.1465
     21 C          64.3476   91.4304   13.9267 C.2     1  UNL1        0.0262
     22 C          64.9937   91.9069   12.6597 C.2     1  UNL1        0.0118
     23 C          66.3898   92.4548   12.6897 C.2     1  UNL1        0.0216
     24 C          67.1397   92.5261   13.9868 C.2     1  UNL1        0.1008
     25 N          68.5177   93.0134   14.3239 N.2     1  UNL1       -0.1482
     26 N          68.7233   92.8380   15.7994 N.2     1  UNL1       -0.1467
     27 C          67.4723   92.2424   16.3741 C.2     1  UNL1        0.1198
     28 C          66.4936   92.0496   15.2539 C.2     1  UNL1        0.0238
     29 C          65.0976   91.5018   15.2238 C.3     1  UNL1        0.0703
@<TRIPOS>BOND
     1     1     2    2
     2     2     9    1
     3     9    10    1
     4     9    12    1
     5    12    13   ar
     6    13    14   ar
     7    14    15   ar
     8    15    16    1
     9    15    17   ar
    10    17    18   ar
    11     2     3   am
    12     3     4    1
    13     4     5    1
    14     5     6    1
    15     6    19    1
    16    19    21    1
    17    21    22    2
    18    22    23    1
    19    23    24    2
    20    24    25    1
    21    25    26    2
    22    26    27    1
    23    27    28    2
    24    28    29    1
    25     6     7    1
    26     7     8    1
    27    18    12   ar
    28     8     3    1
    29    29    21    1
    30    28    24    1
    31    10    11    1
    32    19    20    1
@<TRIPOS>MOLECULE
*****
 29 32 0 0 0
SMALL
GASTEIGER

@<TRIPOS>ATOM
      1 O          66.7783   90.5721   14.6339 O.2     1  UNL1       -0.2719
      2 C          65.8229   91.3961   13.8226 C.2     1  UNL1        0.2569
      3 N          64.5763   90.7714   13.2696 N.am    1  UNL1       -0.2772
      4 C          64.2852   89.3228   13.5279 C.3     1  UNL1        0.0952
      5 C          63.0385   88.6981   12.9748 C.3     1  UNL1        0.0410
      6 C          62.0831   89.5221   12.1635 C.3     1  UNL1        0.0722
      7 C          62.3743   90.9707   11.9053 C.3     1  UNL1        0.0410
      8 C          63.6209   91.5954   12.4582 C.3     1  UNL1        0.0952
      9 C          66.1140   92.8447   13.5642 C.3     1  UNL1        0.2096
     10 O          66.0532   93.8343   14.6898 O.3     1  UNL1       -0.3719
     11 H          66.2664   94.7191   14.3544 H       1  UNL1        0.2114
     12 C          66.4660   93.3037   12.1803 C.ar    1  UNL1        0.0131
     13 C          66.1536   94.7074   11.7534 C.ar    1  UNL1       -0.0010
     14 C          66.5056   95.1664   10.3695 C.ar    1  UNL1        0.0065
     15 C          67.1700   94.2218    9.4123 C.ar    1  UNL1        0.0345
     16 BR         67.5220   94.6808    8.0283 Br      1  UNL1       -0.0490
     17 C          67.4824   92.8181    9.8390 C.ar    1  UNL1        0.0065
     18 C          67.1304   92.3591   11.2230 C.ar    1  UNL1       -0.0010
     19 N          60.8365   88.8974   11.6106 N.pl3   1  UNL1       -0.3369
     20 H          59.9670   89.0723   12.0378 H       1  UNL1        0.1465
     21 C          60.9148   88.0062   10.4065 C.2     1  UNL1        0.0262
     22 C          59.8078   88.0139    9.3944 C.2     1  UNL1        0.0118
     23 C          59.8862   87.1227    8.1903 C.2     1  UNL1        0.0216
     24 C          61.0716   86.2238    7.9985 C.2     1  UNL1        0.1008
     25 N          61.4234   85.2433    6.9192 N.2     1  UNL1       -0.1482
     26 N          62.7478   84.6296    7.2644 N.2     1  UNL1       -0.1467
     27 C          63.2146   85.2308    8.5569 C.2     1  UNL1        0.1198
     28 C          62.1786   86.2161    9.0106 C.2     1  UNL1        0.0238
     29 C          62.1002   87.1073   10.2146 C.3     1  UNL1        0.0703
@<TRIPOS>BOND
     1     1     2    2
     2     2     9    1
     3     9    10    1
     4     9    12    1
     5    12    13   ar
     6    13    14   ar
     7    14    15   ar
     8    15    16    1
     9    15    17   ar
    10    17    18   ar
    11     2     3   am
    12     3     4    1
    13     4     5    1
    14     5     6    1
    15     6    19    1
    16    19    21    1
    17    21    22    2
    18    22    23    1
    19    23    24    2
    20    24    25    1
    21    25    26    2
    22    26    27    1
    23    27    28    2
    24    28    29    1
    25     6     7    1
    26     7     8    1
    27    18    12   ar
    28     8     3    1
    29    29    21    1
    30    28    24    1
    31    10    11    1
    32    19    20    1
@<TRIPOS>MOLECULE
*****
 29 32 0 0 0
SMALL
GASTEIGER

@<TRIPOS>ATOM
      1 O          66.9577   91.3274   15.3138 O.2     1  UNL1       -0.2719
      2 C          66.1077   91.8432   14.1906 C.2     1  UNL1        0.2569
      3 N          65.0674   90.9586   13.5700 N.am    1  UNL1       -0.2772
      4 C          64.8771   89.5583   14.0725 C.3     1  UNL1        0.0952
      5 C          63.8367   88.6736   13.4518 C.3     1  UNL1        0.0410
      6 C          62.9868   89.1895   12.3286 C.3     1  UNL1        0.0722
      7 C          63.1772   90.5900   11.8262 C.3     1  UNL1        0.0410
      8 C          64.2175   91.4746   12.4468 C.3     1  UNL1        0.0952
      9 C          66.2981   93.2437   13.6881 C.3     1  UNL1        0.2096
     10 O          66.1344   94.4049   14.6235 O.3     1  UNL1       -0.3719
     11 H          66.2908   95.2324   14.1421 H       1  UNL1        0.2114
     12 C          66.6521   93.4830   12.2503 C.ar    1  UNL1        0.0131
     13 C          66.2805   94.7786   11.5919 C.ar    1  UNL1       -0.0010
     14 C          66.6345   95.0177   10.1541 C.ar    1  UNL1        0.0065
     15 C          67.3601   93.9614    9.3745 C.ar    1  UNL1        0.0345
     16 BR         67.7141   94.2007    7.9367 Br      1  UNL1       -0.0490
     17 C          67.7317   92.6659   10.0328 C.ar    1  UNL1        0.0065
     18 C          67.3777   92.4267   11.4708 C.ar    1  UNL1       -0.0010
     19 N          61.9465   88.3048   11.7080 N.pl3   1  UNL1       -0.3369
     20 H          61.0124   88.6102   11.6487 H       1  UNL1        0.1465
     21 C          62.3294   86.9550   11.1776 C.2     1  UNL1        0.0262
     22 C          62.3929   86.7211    9.6973 C.2     1  UNL1        0.0118
     23 C          62.7758   85.3712    9.1669 C.2     1  UNL1        0.0216
     24 C          63.0953   84.2553   10.1169 C.2     1  UNL1        0.1008
     25 N          63.5007   82.8290    9.8899 N.2     1  UNL1       -0.1482
     26 N          63.6877   82.1814   11.2299 N.2     1  UNL1       -0.1467
     27 C          63.3980   83.2074   12.2851 C.2     1  UNL1        0.1198
     28 C          63.0319   84.4891   11.5972 C.2     1  UNL1        0.0238
     29 C          62.6489   85.8390   12.1275 C.3     1  UNL1        0.0703
@<TRIPOS>BOND
     1     1     2    2
     2     2     9    1
     3     9    10    1
     4     9    12    1
     5    12    13   ar
     6    13    14   ar
     7    14    15   ar
     8    15    16    1
     9    15    17   ar
    10    17    18   ar
    11     2     3   am
    12     3     4    1
    13     4     5    1
    14     5     6    1
    15     6    19    1
    16    19    21    1
    17    21    22    2
    18    22    23    1
    19    23    24    2
    20    24    25    1
    21    25    26    2
    22    26    27    1
    23    27    28    2
    24    28    29    1
    25     6     7    1
    26     7     8    1
    27    18    12   ar
    28     8     3    1
    29    29    21    1
    30    28    24    1
    31    10    11    1
    32    19    20    1
@<TRIPOS>MOLECULE
*****
 29 32 0 0 0
SMALL
GASTEIGER

@<TRIPOS>ATOM
      1 O          59.7464   86.3703    7.6805 O.2     1  UNL1       -0.2719
      2 C          61.0375   86.4477    8.4402 C.2     1  UNL1        0.2569
      3 N          61.3193   87.6280    9.3219 N.am    1  UNL1       -0.2772
      4 C          60.3101   88.7308    9.4441 C.3     1  UNL1        0.0952
      5 C          60.5919   89.9111   10.3259 C.3     1  UNL1        0.0410
      6 C          61.8830   89.9885   11.0856 C.3     1  UNL1        0.0722
      7 C          62.8923   88.8855   10.9634 C.3     1  UNL1        0.0410
      8 C          62.6105   87.7053   10.0816 C.3     1  UNL1        0.0952
      9 C          62.0468   85.3448    8.3180 C.3     1  UNL1        0.2096
     10 O          62.4918   84.8821    6.9623 O.3     1  UNL1       -0.3719
     11 H          63.1417   84.1688    7.0613 H       1  UNL1        0.2114
     12 C          62.6111   84.7046    9.5516 C.ar    1  UNL1        0.0131
     13 C          62.0071   84.9988   10.8927 C.ar    1  UNL1       -0.0010
     14 C          62.5715   84.3586   12.1262 C.ar    1  UNL1        0.0065
     15 C          63.7399   83.4240   12.0186 C.ar    1  UNL1        0.0345
     16 BR         64.3042   82.7838   13.2522 Br      1  UNL1       -0.0490
     17 C          64.3439   83.1297   10.6776 C.ar    1  UNL1        0.0065
     18 C          63.7795   83.7700    9.4440 C.ar    1  UNL1       -0.0010
     19 N          62.1648   91.1688   11.9673 N.pl3   1  UNL1       -0.3369
     20 H          61.5174   91.9085   12.0215 H       1  UNL1        0.1465
     21 C          63.4331   91.2219   12.7666 C.2     1  UNL1        0.0262
     22 C          63.4999   90.5625   14.1121 C.2     1  UNL1        0.0118
     23 C          64.7682   90.6157   14.9114 C.2     1  UNL1        0.0216
     24 C          65.9696   91.3283   14.3649 C.2     1  UNL1        0.1008
     25 N          67.3464   91.5451   14.9196 N.2     1  UNL1       -0.1482
     26 N          68.1304   92.3385   13.9167 N.2     1  UNL1       -0.1467
     27 C          67.2383   92.6121   12.7423 C.2     1  UNL1        0.1198
     28 C          65.9028   91.9878   13.0193 C.2     1  UNL1        0.0238
     29 C          64.6346   91.9346   12.2202 C.3     1  UNL1        0.0703
@<TRIPOS>BOND
     1     1     2    2
     2     2     9    1
     3     9    10    1
     4     9    12    1
     5    12    13   ar
     6    13    14   ar
     7    14    15   ar
     8    15    16    1
     9    15    17   ar
    10    17    18   ar
    11     2     3   am
    12     3     4    1
    13     4     5    1
    14     5     6    1
    15     6    19    1
    16    19    21    1
    17    21    22    2
    18    22    23    1
    19    23    24    2
    20    24    25    1
    21    25    26    2
    22    26    27    1
    23    27    28    2
    24    28    29    1
    25     6     7    1
    26     7     8    1
    27    18    12   ar
    28     8     3    1
    29    29    21    1
    30    28    24    1
    31    10    11    1
    32    19    20    1
@<TRIPOS>MOLECULE
*****
 29 32 0 0 0
SMALL
GASTEIGER

@<TRIPOS>ATOM
      1 O          67.1288   92.5223   14.3963 O.2     1  UNL1       -0.2719
      2 C          66.6908   92.3326   12.9743 C.2     1  UNL1        0.2569
      3 N          65.3308   91.7741   12.6766 N.am    1  UNL1       -0.2772
      4 C          64.4089   91.4055   13.8008 C.3     1  UNL1        0.0952
      5 C          63.0489   90.8470   13.5030 C.3     1  UNL1        0.0410
      6 C          62.6109   90.6573   12.0810 C.3     1  UNL1        0.0722
      7 C          63.5329   91.0260   10.9567 C.3     1  UNL1        0.0410
      8 C          64.8929   91.5844   11.2544 C.3     1  UNL1        0.0952
      9 C          67.6128   92.7013   11.8500 C.3     1  UNL1        0.2096
     10 O          68.9491   92.0314   11.7255 O.3     1  UNL1       -0.3719
     11 H          69.4158   92.3823   10.9510 H       1  UNL1        0.2114
     12 C          67.1984   93.7398   10.8501 C.ar    1  UNL1        0.0131
     13 C          66.3193   94.8794   11.2728 C.ar    1  UNL1       -0.0010
     14 C          65.9050   95.9179   10.2729 C.ar    1  UNL1        0.0065
     15 C          66.3698   95.8170    8.8503 C.ar    1  UNL1        0.0345
     16 BR         65.9555   96.8555    7.8505 Br      1  UNL1       -0.0490
     17 C          67.2489   94.6775    8.4276 C.ar    1  UNL1        0.0065
     18 C          67.6632   93.6389    9.4275 C.ar    1  UNL1       -0.0010
     19 N          61.2509   90.0988   11.7833 N.pl3   1  UNL1       -0.3369
     20 H          60.4537   90.4928   12.2058 H       1  UNL1        0.1465
     21 C          61.1057   88.9400   10.8418 C.2     1  UNL1        0.0262
     22 C          61.9982   87.7428   10.9827 C.2     1  UNL1        0.0118
     23 C          61.8529   86.5841   10.0412 C.2     1  UNL1        0.0216
     24 C          60.8151   86.6227    8.9590 C.2     1  UNL1        0.1008
     25 N          60.4413   85.6376    7.8913 N.2     1  UNL1       -0.1482
     26 N          59.3177   86.2262    7.0906 N.2     1  UNL1       -0.1467
     27 C          58.9971   87.5749    7.6633 C.2     1  UNL1        0.1198
     28 C          59.9225   87.8200    8.8181 C.2     1  UNL1        0.0238
     29 C          60.0678   88.9787    9.7595 C.3     1  UNL1        0.0703
@<TRIPOS>BOND
     1     1     2    2
     2     2     9    1
     3     9    10    1
     4     9    12    1
     5    12    13   ar
     6    13    14   ar
     7    14    15   ar
     8    15    16    1
     9    15    17   ar
    10    17    18   ar
    11     2     3   am
    12     3     4    1
    13     4     5    1
    14     5     6    1
    15     6    19    1
    16    19    21    1
    17    21    22    2
    18    22    23    1
    19    23    24    2
    20    24    25    1
    21    25    26    2
    22    26    27    1
    23    27    28    2
    24    28    29    1
    25     6     7    1
    26     7     8    1
    27    18    12   ar
    28     8     3    1
    29    29    21    1
    30    28    24    1
    31    10    11    1
    32    19    20    1
@<TRIPOS>MOLECULE
*****
 29 32 0 0 0
SMALL
GASTEIGER

@<TRIPOS>ATOM
      1 O          62.7220   82.5774   15.6939 O.2     1  UNL1       -0.2719
      2 C          63.3699   83.4792   14.6855 C.2     1  UNL1        0.2569
      3 N          63.5190   84.9434   14.9752 N.am    1  UNL1       -0.2772
      4 C          63.0203   85.5057   16.2732 C.3     1  UNL1        0.0952
      5 C          63.1695   86.9700   16.5628 C.3     1  UNL1        0.0410
      6 C          63.8173   87.8718   15.5544 C.3     1  UNL1        0.0722
      7 C          64.3160   87.3094   14.2563 C.3     1  UNL1        0.0410
      8 C          64.1669   85.8452   13.9666 C.3     1  UNL1        0.0952
      9 C          63.8686   82.9169   13.3874 C.3     1  UNL1        0.2096
     10 O          64.7237   81.6845   13.3831 O.3     1  UNL1       -0.3719
     11 H          64.9582   81.4568   12.4699 H       1  UNL1        0.2114
     12 C          63.5122   83.5869   12.0936 C.ar    1  UNL1        0.0131
     13 C          62.4214   84.6159   12.0573 C.ar    1  UNL1       -0.0010
     14 C          62.0651   85.2859   10.7634 C.ar    1  UNL1        0.0065
     15 C          62.7995   84.9269    9.5058 C.ar    1  UNL1        0.0345
     16 BR         62.4431   85.5969    8.2119 Br      1  UNL1       -0.0490
     17 C          63.8902   83.8978    9.5419 C.ar    1  UNL1        0.0065
     18 C          64.2466   83.2278   10.8359 C.ar    1  UNL1       -0.0010
     19 N          63.9665   89.3360   15.8441 N.pl3   1  UNL1       -0.3369
     20 H          63.8352   89.6725   16.7599 H       1  UNL1        0.1465
     21 C          64.3156   90.2875   14.7382 C.2     1  UNL1        0.0262
     22 C          63.5175   90.2868   13.4683 C.2     1  UNL1        0.0118
     23 C          63.8666   91.2383   12.3624 C.2     1  UNL1        0.0216
     24 C          65.0139   92.1905   12.5267 C.2     1  UNL1        0.1008
     25 N          65.5889   93.2356   11.6172 N.2     1  UNL1       -0.1482
     26 N          66.7425   93.8821   12.3252 N.2     1  UNL1       -0.1467
     27 C          66.8804   93.2367   13.6722 C.2     1  UNL1        0.1198
     28 C          65.8121   92.1912   13.7967 C.2     1  UNL1        0.0238
     29 C          65.4629   91.2397   14.9025 C.3     1  UNL1        0.0703
@<TRIPOS>BOND
     1     1     2    2
     2     2     9    1
     3     9    10    1
     4     9    12    1
     5    12    13   ar
     6    13    14   ar
     7    14    15   ar
     8    15    16    1
     9    15    17   ar
    10    17    18   ar
    11     2     3   am
    12     3     4    1
    13     4     5    1
    14     5     6    1
    15     6    19    1
    16    19    21    1
    17    21    22    2
    18    22    23    1
    19    23    24    2
    20    24    25    1
    21    25    26    2
    22    26    27    1
    23    27    28    2
    24    28    29    1
    25     6     7    1
    26     7     8    1
    27    18    12   ar
    28     8     3    1
    29    29    21    1
    30    28    24    1
    31    10    11    1
    32    19    20    1
