@<TRIPOS>MOLECULE
*****
 69 76 0 0 0
SMALL
GASTEIGER

@<TRIPOS>ATOM
      1 N          58.7521   95.9905   -3.8751 N.3     1  UNL1       -0.1862
      2 C          60.1505   96.5326   -3.8574 C.3     1  UNL1        0.1775
      3 C          61.0264   96.3095   -2.6603 C.2     1  UNL1        0.2452
      4 O          62.4249   96.8517   -2.6427 O.2     1  UNL1       -0.2732
      5 N          60.5038   95.5443   -1.4808 N.am    1  UNL1       -0.2541
      6 C          61.3796   95.3212   -0.2837 C.3     1  UNL1        0.1577
      7 C          60.8570   94.5560    0.8958 C.2     1  UNL1        0.2445
      8 O          61.7328   94.3329    2.0930 O.2     1  UNL1       -0.2731
      9 N          59.4584   94.0138    0.8782 N.am    1  UNL1       -0.2705
     10 C          58.5826   94.2369   -0.3189 C.3     1  UNL1        0.1359
     11 C          59.1053   95.0021   -1.4985 C.3     1  UNL1        0.1908
     12 N          58.2295   95.2252   -2.6956 N.am    1  UNL1       -0.1863
     13 C          56.8309   94.6831   -2.7132 C.2     1  UNL1        0.3191
     14 O          56.3083   93.9178   -1.5337 O.2     1  UNL1       -0.2512
     15 N          55.9551   94.9061   -3.9103 N.am    1  UNL1       -0.2836
     16 H          56.2981   95.4084   -4.6845 H       1  UNL1        0.1513
     17 C          57.8762   96.2135   -5.0722 C.3     1  UNL1        0.1188
     18 C          59.2907   95.0400   -6.9085 C.2     1  UNL1       -0.0034
     19 C          57.9662   95.2891   -6.2500 C.2     1  UNL1       -0.0071
     20 C          62.7781   95.8633   -0.2660 C.3     1  UNL1        0.0556
     21 C          63.6615   95.6987   -1.4671 C.ar    1  UNL1       -0.0198
     22 C          63.5783   94.4499   -2.2938 C.ar    1  UNL1       -0.0011
     23 C          64.4618   94.2853   -3.4948 C.ar    1  UNL1        0.0363
     24 C          65.4283   95.3696   -3.8692 C.ar    1  UNL1        0.1337
     25 O          66.3117   95.2050   -5.0702 O.3     1  UNL1       -0.5055
     26 C          65.5114   96.6185   -3.0424 C.ar    1  UNL1        0.0363
     27 C          64.6280   96.7831   -1.8414 C.ar    1  UNL1       -0.0011
     28 H          66.2598   94.4249   -5.5866 H       1  UNL1        0.2922
     29 C          58.9358   93.2486    2.0577 C.3     1  UNL1        0.1217
     30 C          59.8770   92.4514    2.9114 C.ar    1  UNL1        0.0135
     31 C          61.3367   92.3979    2.5699 C.ar    1  UNL1       -0.0012
     32 C          62.2779   91.6007    3.4235 C.ar    1  UNL1       -0.0002
     33 C          61.7594   90.8571    4.6186 C.ar    1  UNL1        0.0016
     34 C          60.2998   90.9106    4.9600 C.ar    1  UNL1        0.0214
     35 C          59.5045   90.2853    6.0675 C.ar    1  UNL1        0.0722
     36 C          58.0718   90.6960    5.8983 C.ar    1  UNL1        0.0805
     37 N          57.9816   91.5751    4.6864 N.ar    1  UNL1       -0.3241
     38 C          56.7336   92.2101    4.1487 C.3     1  UNL1        0.1305
     39 C          59.3586   91.7077    4.1064 C.ar    1  UNL1        0.0577
     40 C          60.0468   89.4040    7.1535 C.2     1  UNL1        0.2510
     41 O          60.1339   87.9214    6.9428 O.2     1  UNL1       -0.2698
     42 N          60.5019   90.0053    8.4501 N.am    1  UNL1       -0.2791
     43 H          60.4448   90.9783    8.5884 H       1  UNL1        0.1552
     44 C          61.0442   89.1241    9.5361 C.ar    1  UNL1        0.0701
     45 C          62.4036   89.3921   10.1106 C.ar    1  UNL1        0.0191
     46 C          62.9460   88.5109   11.1966 C.ar    1  UNL1        0.0354
     47 C          62.1288   87.3618   11.7081 C.ar    1  UNL1        0.1286
     48 N          60.7693   87.0938   11.1337 N.ar    1  UNL1       -0.2281
     49 C          60.2270   87.9749   10.0477 C.ar    1  UNL1        0.1149
     50 N          62.6711   86.4806   12.7941 N.pl3   1  UNL1       -0.3196
     51 H          62.9568   86.8737   13.6503 H       1  UNL1        0.1481
     52 C          62.7780   85.0004   12.5756 C.3     1  UNL1        0.0729
     53 C          63.2442   84.4694   11.2525 C.3     1  UNL1        0.0342
     54 C          63.3512   82.9893   11.0339 C.3     1  UNL1        0.0470
     55 C          63.6147   81.6810   10.3491 C.3     1  UNL1        0.0161
     56 C          63.8019   83.4840    9.6914 C.3     1  UNL1        0.0161
     57 N          62.9920   82.0401   12.1384 N.3     1  UNL1       -0.2764
     58 C          63.0989   80.5600   11.9199 C.3     1  UNL1        0.0895
     59 C          62.5258   82.5711   13.4615 C.3     1  UNL1        0.0470
     60 C          62.0379   82.5904   14.8798 C.3     1  UNL1        0.0161
     61 C          62.4633   81.0977   13.7356 C.3     1  UNL1        0.0161
     62 C          62.4188   84.0512   13.6801 C.3     1  UNL1        0.0342
     63 C          54.5566   94.3640   -3.9280 C.3     1  UNL1        0.1177
     64 C          53.4236   95.1944   -3.4020 C.ar    1  UNL1       -0.0025
     65 C          53.3158   95.4708   -1.9316 C.ar    1  UNL1       -0.0026
     66 C          52.1828   96.3012   -1.4057 C.ar    1  UNL1       -0.0003
     67 C          51.1576   96.8553   -2.3500 C.ar    1  UNL1       -0.0000
     68 C          51.2654   96.5790   -3.8205 C.ar    1  UNL1       -0.0003
     69 C          52.3984   95.7486   -4.3465 C.ar    1  UNL1       -0.0026
@<TRIPOS>BOND
     1    18    19    2
     2    19    17    1
     3    17     1    1
     4     1     2    1
     5     2     3    1
     6     3     4    2
     7     3     5   am
     8     5     6    1
     9     6    20    1
    10    20    21    1
    11    21    22   ar
    12    22    23   ar
    13    23    24   ar
    14    24    25    1
    15    24    26   ar
    16    26    27   ar
    17     6     7    1
    18     7     8    2
    19     7     9   am
    20     9    29    1
    21    29    30    1
    22    30    31   ar
    23    31    32   ar
    24    32    33   ar
    25    33    34   ar
    26    34    35   ar
    27    35    40    1
    28    40    41    2
    29    40    42   am
    30    42    44    1
    31    44    45   ar
    32    45    46   ar
    33    46    47   ar
    34    47    50    1
    35    50    52    1
    36    52    53    1
    37    53    54    1
    38    54    55    1
    39    54    56    1
    40    54    57    1
    41    57    58    1
    42    57    59    1
    43    59    60    1
    44    59    61    1
    45    59    62    1
    46    47    48   ar
    47    48    49   ar
    48    35    36   ar
    49    36    37   ar
    50    37    38    1
    51    37    39   ar
    52     9    10    1
    53    10    11    1
    54    11    12    1
    55    12    13   am
    56    13    14    2
    57    13    15   am
    58    15    63    1
    59    63    64    1
    60    64    65   ar
    61    65    66   ar
    62    66    67   ar
    63    67    68   ar
    64    68    69   ar
    65    12     1    1
    66    69    64   ar
    67    11     5    1
    68    27    21   ar
    69    39    30   ar
    70    39    34   ar
    71    49    44   ar
    72    62    52    1
    73    25    28    1
    74    42    43    1
    75    50    51    1
    76    15    16    1
@<TRIPOS>MOLECULE
*****
 69 76 0 0 0
SMALL
GASTEIGER

@<TRIPOS>ATOM
      1 N          65.3806   89.2463   14.5058 N.3     1  UNL1       -0.1862
      2 C          65.5852   87.9918   15.3022 C.3     1  UNL1        0.1775
      3 C          64.7942   86.7595   14.9769 C.2     1  UNL1        0.2452
      4 O          64.9988   85.5049   15.7734 O.2     1  UNL1       -0.2732
      5 N          63.7986   86.7817   13.8552 N.am    1  UNL1       -0.2541
      6 C          63.0076   85.5494   13.5299 C.3     1  UNL1        0.1577
      7 C          62.0120   85.5716   12.4082 C.2     1  UNL1        0.2445
      8 O          61.2210   84.3393   12.0829 O.2     1  UNL1       -0.2731
      9 N          61.8074   86.8262   11.6117 N.am    1  UNL1       -0.2705
     10 C          62.5984   88.0585   11.9370 C.3     1  UNL1        0.1359
     11 C          63.5940   88.0362   13.0587 C.3     1  UNL1        0.1908
     12 N          64.3850   89.2685   13.3840 N.am    1  UNL1       -0.1863
     13 C          64.1804   90.5230   12.5876 C.2     1  UNL1        0.3191
     14 O          63.1848   90.5452   11.4658 O.2     1  UNL1       -0.2512
     15 N          64.9714   91.7553   12.9129 N.am    1  UNL1       -0.2836
     16 H          65.6248   91.7407   13.6491 H       1  UNL1        0.1513
     17 C          66.1716   90.4785   14.8311 C.3     1  UNL1        0.1188
     18 C          66.3987   92.7356   16.0976 C.2     1  UNL1       -0.0034
     19 C          65.5842   91.5336   15.7210 C.2     1  UNL1       -0.0071
     20 C          63.2122   84.2949   14.3263 C.3     1  UNL1        0.0556
     21 C          63.0579   82.9556   13.6688 C.ar    1  UNL1       -0.0198
     22 C          62.1081   81.9447   14.2397 C.ar    1  UNL1       -0.0011
     23 C          61.9538   80.6054   13.5821 C.ar    1  UNL1        0.0363
     24 C          62.7494   80.2768   12.3537 C.ar    1  UNL1        0.1337
     25 O          62.5951   78.9375   11.6962 O.3     1  UNL1       -0.5055
     26 C          63.6993   81.2877   11.7828 C.ar    1  UNL1        0.0363
     27 C          63.8536   82.6270   12.4403 C.ar    1  UNL1       -0.0011
     28 H          62.0018   78.3061   12.0528 H       1  UNL1        0.2922
     29 C          60.8118   86.8484   10.4899 C.3     1  UNL1        0.1217
     30 C          60.3972   88.1550    9.8809 C.ar    1  UNL1        0.0135
     31 C          60.1159   89.3369   10.7608 C.ar    1  UNL1       -0.0012
     32 C          59.7013   90.6434   10.1518 C.ar    1  UNL1       -0.0002
     33 C          59.5679   90.7682    8.6630 C.ar    1  UNL1        0.0016
     34 C          59.8491   89.5863    7.7831 C.ar    1  UNL1        0.0214
     35 C          59.8022   89.4096    6.2943 C.ar    1  UNL1        0.0722
     36 C          60.1878   87.9938    5.9832 C.ar    1  UNL1        0.0805
     37 N          60.4731   87.2956    7.2796 N.ar    1  UNL1       -0.3241
     38 C          60.8938   85.8643    7.4362 C.3     1  UNL1        0.1305
     39 C          60.2638   88.2797    8.3921 C.ar    1  UNL1        0.0577
     40 C          59.4342   90.4637    5.2925 C.2     1  UNL1        0.2510
     41 O          57.9939   90.8230    5.0765 O.2     1  UNL1       -0.2698
     42 N          60.5064   91.1586    4.5067 N.am    1  UNL1       -0.2791
     43 H          61.4517   90.9228    4.6485 H       1  UNL1        0.1552
     44 C          60.1385   92.2126    3.5049 C.ar    1  UNL1        0.0701
     45 C          59.7927   91.8224    2.0985 C.ar    1  UNL1        0.0191
     46 C          59.4248   92.8764    1.0966 C.ar    1  UNL1        0.0354
     47 C          59.4027   94.3206    1.5012 C.ar    1  UNL1        0.1286
     48 N          59.7485   94.7108    2.9077 N.ar    1  UNL1       -0.2281
     49 C          60.1164   93.6568    3.9096 C.ar    1  UNL1        0.1149
     50 N          59.0348   95.3746    0.4995 N.pl3   1  UNL1       -0.3196
     51 H          59.0463   96.3246    0.7577 H       1  UNL1        0.1481
     52 C          58.6494   94.9813   -0.8959 C.3     1  UNL1        0.0729
     53 C          59.6911   94.9240   -1.9736 C.3     1  UNL1        0.0342
     54 C          59.3059   94.5307   -3.3689 C.3     1  UNL1        0.0470
     55 C          59.4313   94.2162   -4.8302 C.3     1  UNL1        0.0161
     56 C          60.7764   94.7575   -3.5589 C.3     1  UNL1        0.0161
     57 N          57.8789   94.1947   -3.6865 N.3     1  UNL1       -0.2764
     58 C          57.4935   93.8014   -5.0818 C.3     1  UNL1        0.0895
     59 C          56.8372   94.2520   -2.6087 C.3     1  UNL1        0.0470
     60 C          55.5005   94.1619   -1.9342 C.3     1  UNL1        0.0161
     61 C          55.9877   93.8275   -3.7698 C.3     1  UNL1        0.0161
     62 C          57.2225   94.6453   -1.2134 C.3     1  UNL1        0.0342
     63 C          64.7668   93.0098   12.1164 C.3     1  UNL1        0.1177
     64 C          65.8090   93.4518   11.1323 C.ar    1  UNL1       -0.0025
     65 C          66.7859   92.4580   10.5774 C.ar    1  UNL1       -0.0026
     66 C          67.8281   92.8999    9.5933 C.ar    1  UNL1       -0.0003
     67 C          67.8933   94.3357    9.1640 C.ar    1  UNL1       -0.0000
     68 C          66.9164   95.3296    9.7189 C.ar    1  UNL1       -0.0003
     69 C          65.8742   94.8876   10.7030 C.ar    1  UNL1       -0.0026
@<TRIPOS>BOND
     1    18    19    2
     2    19    17    1
     3    17     1    1
     4     1     2    1
     5     2     3    1
     6     3     4    2
     7     3     5   am
     8     5     6    1
     9     6    20    1
    10    20    21    1
    11    21    22   ar
    12    22    23   ar
    13    23    24   ar
    14    24    25    1
    15    24    26   ar
    16    26    27   ar
    17     6     7    1
    18     7     8    2
    19     7     9   am
    20     9    29    1
    21    29    30    1
    22    30    31   ar
    23    31    32   ar
    24    32    33   ar
    25    33    34   ar
    26    34    35   ar
    27    35    40    1
    28    40    41    2
    29    40    42   am
    30    42    44    1
    31    44    45   ar
    32    45    46   ar
    33    46    47   ar
    34    47    50    1
    35    50    52    1
    36    52    53    1
    37    53    54    1
    38    54    55    1
    39    54    56    1
    40    54    57    1
    41    57    58    1
    42    57    59    1
    43    59    60    1
    44    59    61    1
    45    59    62    1
    46    47    48   ar
    47    48    49   ar
    48    35    36   ar
    49    36    37   ar
    50    37    38    1
    51    37    39   ar
    52     9    10    1
    53    10    11    1
    54    11    12    1
    55    12    13   am
    56    13    14    2
    57    13    15   am
    58    15    63    1
    59    63    64    1
    60    64    65   ar
    61    65    66   ar
    62    66    67   ar
    63    67    68   ar
    64    68    69   ar
    65    12     1    1
    66    69    64   ar
    67    11     5    1
    68    27    21   ar
    69    39    30   ar
    70    39    34   ar
    71    49    44   ar
    72    62    52    1
    73    25    28    1
    74    42    43    1
    75    50    51    1
    76    15    16    1
@<TRIPOS>MOLECULE
*****
 69 76 0 0 0
SMALL
GASTEIGER

@<TRIPOS>ATOM
      1 N          65.7624   89.9167   13.9846 N.3     1  UNL1       -0.1862
      2 C          66.1995   88.7442   14.8118 C.3     1  UNL1        0.1775
      3 C          65.4020   87.4740   14.7928 C.2     1  UNL1        0.2452
      4 O          65.8392   86.3015   15.6200 O.2     1  UNL1       -0.2732
      5 N          64.1673   87.3762   13.9467 N.am    1  UNL1       -0.2541
      6 C          63.3697   86.1059   13.9278 C.3     1  UNL1        0.1577
      7 C          62.1350   86.0081   13.0817 C.2     1  UNL1        0.2445
      8 O          61.3375   84.7379   13.0628 O.2     1  UNL1       -0.2731
      9 N          61.6978   87.1807   12.2545 N.am    1  UNL1       -0.2705
     10 C          62.4953   88.4509   12.2735 C.3     1  UNL1        0.1359
     11 C          63.7301   88.5487   13.1196 C.3     1  UNL1        0.1908
     12 N          64.5277   89.8189   13.1386 N.am    1  UNL1       -0.1863
     13 C          64.0904   90.9914   12.3114 C.2     1  UNL1        0.3191
     14 O          62.8557   90.8936   11.4653 O.2     1  UNL1       -0.2512
     15 N          64.8880   92.2617   12.3304 N.am    1  UNL1       -0.2836
     16 H          65.6984   92.3259   12.8857 H       1  UNL1        0.1513
     17 C          66.5599   91.1870   14.0036 C.3     1  UNL1        0.1188
     18 C          68.4220   92.6152   15.1184 C.2     1  UNL1       -0.0034
     19 C          67.3808   91.5392   15.2086 C.2     1  UNL1       -0.0071
     20 C          63.8069   84.9335   14.7549 C.3     1  UNL1        0.0556
     21 C          63.4678   83.5392   14.3178 C.ar    1  UNL1       -0.0198
     22 C          64.3126   82.8497   13.2878 C.ar    1  UNL1       -0.0011
     23 C          63.9735   81.4555   12.8508 C.ar    1  UNL1        0.0363
     24 C          62.7896   80.7507   13.4437 C.ar    1  UNL1        0.1337
     25 O          62.4505   79.3564   13.0066 O.3     1  UNL1       -0.5055
     26 C          61.9448   81.4401   14.4737 C.ar    1  UNL1        0.0363
     27 C          62.2838   82.8344   14.9108 C.ar    1  UNL1       -0.0011
     28 H          62.9783   78.9257   12.3632 H       1  UNL1        0.2922
     29 C          60.4631   87.0829   11.4085 C.3     1  UNL1        0.1217
     30 C          60.5697   87.1606    9.9142 C.ar    1  UNL1        0.0135
     31 C          61.0273   85.9655    9.1318 C.ar    1  UNL1       -0.0012
     32 C          61.1339   86.0431    7.6377 C.ar    1  UNL1       -0.0002
     33 C          60.7828   87.3160    6.9259 C.ar    1  UNL1        0.0016
     34 C          60.3252   88.5111    7.7083 C.ar    1  UNL1        0.0214
     35 C          59.9141   89.8903    7.2854 C.ar    1  UNL1        0.0722
     36 C          59.5535   90.6650    8.5182 C.ar    1  UNL1        0.0805
     37 N          59.7417   89.7646    9.7030 N.ar    1  UNL1       -0.3241
     38 C          59.4960   90.1310   11.1367 C.3     1  UNL1        0.1305
     39 C          60.2186   88.4334    9.2025 C.ar    1  UNL1        0.0577
     40 C          59.8712   90.4045    5.8769 C.2     1  UNL1        0.2510
     41 O          58.6663   90.1479    5.0212 O.2     1  UNL1       -0.2698
     42 N          61.0332   91.1754    5.3242 N.am    1  UNL1       -0.2791
     43 H          61.8240   91.3438    5.8859 H       1  UNL1        0.1552
     44 C          60.9904   91.6896    3.9158 C.ar    1  UNL1        0.0701
     45 C          62.1810   91.5207    3.0192 C.ar    1  UNL1        0.0191
     46 C          62.1383   92.0349    1.6108 C.ar    1  UNL1        0.0354
     47 C          60.9049   92.7180    1.0989 C.ar    1  UNL1        0.1286
     48 N          59.7142   92.8870    1.9954 N.ar    1  UNL1       -0.2281
     49 C          59.7570   92.3728    3.4039 C.ar    1  UNL1        0.1149
     50 N          60.8621   93.2322   -0.3095 N.pl3   1  UNL1       -0.3196
     51 H          60.0786   93.0490   -0.8768 H       1  UNL1        0.1481
     52 C          62.0130   94.0256   -0.8537 C.3     1  UNL1        0.0729
     53 C          62.4967   93.7824   -2.2525 C.3     1  UNL1        0.0342
     54 C          63.6476   94.5757   -2.7967 C.3     1  UNL1        0.0470
     55 C          64.6929   95.0685   -3.7530 C.3     1  UNL1        0.0161
     56 C          63.3435   93.7104   -3.9836 C.3     1  UNL1        0.0161
     57 N          64.3148   95.6122   -1.9420 N.3     1  UNL1       -0.2764
     58 C          65.4657   96.4056   -2.4861 C.3     1  UNL1        0.0895
     59 C          63.8311   95.8554   -0.5431 C.3     1  UNL1        0.0470
     60 C          63.7355   96.4452    0.8327 C.3     1  UNL1        0.0161
     61 C          64.9488   96.8536   -0.6095 C.3     1  UNL1        0.0161
     62 C          62.6802   95.0621    0.0010 C.3     1  UNL1        0.0342
     63 C          64.4508   93.4342   11.5033 C.3     1  UNL1        0.1177
     64 C          65.4459   94.1619   10.6488 C.ar    1  UNL1       -0.0025
     65 C          65.2868   95.6324   10.3992 C.ar    1  UNL1       -0.0026
     66 C          66.2819   96.3601    9.5447 C.ar    1  UNL1       -0.0003
     67 C          67.4361   95.6174    8.9398 C.ar    1  UNL1       -0.0000
     68 C          67.5954   94.1469    9.1894 C.ar    1  UNL1       -0.0003
     69 C          66.6003   93.4191   10.0438 C.ar    1  UNL1       -0.0026
@<TRIPOS>BOND
     1    18    19    2
     2    19    17    1
     3    17     1    1
     4     1     2    1
     5     2     3    1
     6     3     4    2
     7     3     5   am
     8     5     6    1
     9     6    20    1
    10    20    21    1
    11    21    22   ar
    12    22    23   ar
    13    23    24   ar
    14    24    25    1
    15    24    26   ar
    16    26    27   ar
    17     6     7    1
    18     7     8    2
    19     7     9   am
    20     9    29    1
    21    29    30    1
    22    30    31   ar
    23    31    32   ar
    24    32    33   ar
    25    33    34   ar
    26    34    35   ar
    27    35    40    1
    28    40    41    2
    29    40    42   am
    30    42    44    1
    31    44    45   ar
    32    45    46   ar
    33    46    47   ar
    34    47    50    1
    35    50    52    1
    36    52    53    1
    37    53    54    1
    38    54    55    1
    39    54    56    1
    40    54    57    1
    41    57    58    1
    42    57    59    1
    43    59    60    1
    44    59    61    1
    45    59    62    1
    46    47    48   ar
    47    48    49   ar
    48    35    36   ar
    49    36    37   ar
    50    37    38    1
    51    37    39   ar
    52     9    10    1
    53    10    11    1
    54    11    12    1
    55    12    13   am
    56    13    14    2
    57    13    15   am
    58    15    63    1
    59    63    64    1
    60    64    65   ar
    61    65    66   ar
    62    66    67   ar
    63    67    68   ar
    64    68    69   ar
    65    12     1    1
    66    69    64   ar
    67    11     5    1
    68    27    21   ar
    69    39    30   ar
    70    39    34   ar
    71    49    44   ar
    72    62    52    1
    73    25    28    1
    74    42    43    1
    75    50    51    1
    76    15    16    1
@<TRIPOS>MOLECULE
*****
 69 76 0 0 0
SMALL
GASTEIGER

@<TRIPOS>ATOM
      1 N          65.6013   90.0184   13.8122 N.3     1  UNL1       -0.1862
      2 C          66.0303   88.8805   14.6903 C.3     1  UNL1        0.1775
      3 C          65.2430   87.6037   14.7014 C.2     1  UNL1        0.2452
      4 O          65.6720   86.4657   15.5795 O.2     1  UNL1       -0.2732
      5 N          64.0269   87.4648   13.8343 N.am    1  UNL1       -0.2541
      6 C          63.2397   86.1880   13.8454 C.3     1  UNL1        0.1577
      7 C          62.0236   86.0492   12.9784 C.2     1  UNL1        0.2445
      8 O          61.2364   84.7724   12.9895 O.2     1  UNL1       -0.2731
      9 N          61.5947   87.1871   12.1003 N.am    1  UNL1       -0.2705
     10 C          62.3819   88.4639   12.0892 C.3     1  UNL1        0.1359
     11 C          63.5980   88.6027   12.9563 C.3     1  UNL1        0.1908
     12 N          64.3852   89.8795   12.9452 N.am    1  UNL1       -0.1863
     13 C          63.9563   91.0175   12.0670 C.2     1  UNL1        0.3191
     14 O          62.7402   90.8787   11.2000 O.2     1  UNL1       -0.2512
     15 N          64.7435   92.2943   12.0559 N.am    1  UNL1       -0.2836
     16 H          65.5417   92.3854   12.6250 H       1  UNL1        0.1513
     17 C          66.3885   91.2952   13.8011 C.3     1  UNL1        0.1188
     18 C          67.9785   92.0254   15.7217 C.2     1  UNL1       -0.0034
     19 C          66.6228   92.0430   15.0801 C.2     1  UNL1       -0.0071
     20 C          63.6686   85.0501   14.7235 C.3     1  UNL1        0.0556
     21 C          63.4008   83.6356   14.3024 C.ar    1  UNL1       -0.0198
     22 C          64.2334   83.0026   13.2273 C.ar    1  UNL1       -0.0011
     23 C          63.9656   81.5881   12.8062 C.ar    1  UNL1        0.0363
     24 C          62.8650   80.8065   13.4603 C.ar    1  UNL1        0.1337
     25 O          62.5971   79.3919   13.0392 O.3     1  UNL1       -0.5055
     26 C          62.0322   81.4394   14.5355 C.ar    1  UNL1        0.0363
     27 C          62.3001   82.8540   14.9566 C.ar    1  UNL1       -0.0011
     28 H          63.1173   78.9966   12.3676 H       1  UNL1        0.2922
     29 C          60.3786   87.0483   11.2333 C.3     1  UNL1        0.1217
     30 C          60.5050   87.1502    9.7420 C.ar    1  UNL1        0.0135
     31 C          60.9621   85.9643    8.9453 C.ar    1  UNL1       -0.0012
     32 C          61.0886   86.0662    7.4542 C.ar    1  UNL1       -0.0002
     33 C          60.7578   87.3539    6.7597 C.ar    1  UNL1        0.0016
     34 C          60.3006   88.5398    7.5564 C.ar    1  UNL1        0.0214
     35 C          59.9071   89.9295    7.1517 C.ar    1  UNL1        0.0722
     36 C          59.5374   90.6865    8.3928 C.ar    1  UNL1        0.0805
     37 N          59.7025   89.7647    9.5644 N.ar    1  UNL1       -0.3241
     38 C          59.4417   90.1091   11.0009 C.3     1  UNL1        0.1305
     39 C          60.1742   88.4379    9.0476 C.ar    1  UNL1        0.0577
     40 C          59.8867   90.4677    5.7517 C.2     1  UNL1        0.2510
     41 O          58.7020   90.2134    4.8675 O.2     1  UNL1       -0.2698
     42 N          61.0511   91.2602    5.2359 N.am    1  UNL1       -0.2791
     43 H          61.8287   91.4271    5.8162 H       1  UNL1        0.1552
     44 C          61.0309   91.7984    3.8359 C.ar    1  UNL1        0.0701
     45 C          62.2047   91.5744    2.9293 C.ar    1  UNL1        0.0191
     46 C          62.1845   92.1126    1.5293 C.ar    1  UNL1        0.0354
     47 C          60.9905   92.8748    1.0360 C.ar    1  UNL1        0.1286
     48 N          59.8167   93.0988    1.9426 N.ar    1  UNL1       -0.2281
     49 C          59.8369   92.5606    3.3426 C.ar    1  UNL1        0.1149
     50 N          60.9702   93.4130   -0.3639 N.pl3   1  UNL1       -0.3196
     51 H          61.8076   93.4816   -0.8771 H       1  UNL1        0.1481
     52 C          59.6741   93.8468   -0.9820 C.3     1  UNL1        0.0729
     53 C          59.1047   95.1968   -0.6606 C.3     1  UNL1        0.0342
     54 C          57.8087   95.6306   -1.2787 C.3     1  UNL1        0.0470
     55 C          56.6218   96.4858   -1.6105 C.3     1  UNL1        0.0161
     56 C          58.1231   96.8438   -0.4545 C.3     1  UNL1        0.0161
     57 N          57.0819   94.7145   -2.2181 N.3     1  UNL1       -0.2764
     58 C          55.7858   95.1483   -2.8362 C.3     1  UNL1        0.0895
     59 C          57.6513   93.3645   -2.5395 C.3     1  UNL1        0.0470
     60 C          57.7869   92.0007   -3.1490 C.3     1  UNL1        0.0161
     61 C          56.4023   93.3247   -3.3692 C.3     1  UNL1        0.0161
     62 C          58.9474   92.9307   -1.9215 C.3     1  UNL1        0.0342
     63 C          64.3146   93.4322   11.1778 C.3     1  UNL1        0.1177
     64 C          65.3440   94.2644   10.4722 C.ar    1  UNL1       -0.0025
     65 C          65.0929   95.7237   10.2327 C.ar    1  UNL1       -0.0026
     66 C          66.1223   96.5558    9.5271 C.ar    1  UNL1       -0.0003
     67 C          67.4027   95.9287    9.0610 C.ar    1  UNL1       -0.0000
     68 C          67.6538   94.4693    9.3006 C.ar    1  UNL1       -0.0003
     69 C          66.6244   93.6372   10.0062 C.ar    1  UNL1       -0.0026
@<TRIPOS>BOND
     1    18    19    2
     2    19    17    1
     3    17     1    1
     4     1     2    1
     5     2     3    1
     6     3     4    2
     7     3     5   am
     8     5     6    1
     9     6    20    1
    10    20    21    1
    11    21    22   ar
    12    22    23   ar
    13    23    24   ar
    14    24    25    1
    15    24    26   ar
    16    26    27   ar
    17     6     7    1
    18     7     8    2
    19     7     9   am
    20     9    29    1
    21    29    30    1
    22    30    31   ar
    23    31    32   ar
    24    32    33   ar
    25    33    34   ar
    26    34    35   ar
    27    35    40    1
    28    40    41    2
    29    40    42   am
    30    42    44    1
    31    44    45   ar
    32    45    46   ar
    33    46    47   ar
    34    47    50    1
    35    50    52    1
    36    52    53    1
    37    53    54    1
    38    54    55    1
    39    54    56    1
    40    54    57    1
    41    57    58    1
    42    57    59    1
    43    59    60    1
    44    59    61    1
    45    59    62    1
    46    47    48   ar
    47    48    49   ar
    48    35    36   ar
    49    36    37   ar
    50    37    38    1
    51    37    39   ar
    52     9    10    1
    53    10    11    1
    54    11    12    1
    55    12    13   am
    56    13    14    2
    57    13    15   am
    58    15    63    1
    59    63    64    1
    60    64    65   ar
    61    65    66   ar
    62    66    67   ar
    63    67    68   ar
    64    68    69   ar
    65    12     1    1
    66    69    64   ar
    67    11     5    1
    68    27    21   ar
    69    39    30   ar
    70    39    34   ar
    71    49    44   ar
    72    62    52    1
    73    25    28    1
    74    42    43    1
    75    50    51    1
    76    15    16    1
@<TRIPOS>MOLECULE
*****
 69 76 0 0 0
SMALL
GASTEIGER

@<TRIPOS>ATOM
      1 N          59.3854   96.0190   -4.2139 N.3     1  UNL1       -0.1862
      2 C          60.8143   96.4717   -4.1556 C.3     1  UNL1        0.1775
      3 C          61.6392   96.1957   -2.9336 C.2     1  UNL1        0.2452
      4 O          63.0681   96.6484   -2.8753 O.2     1  UNL1       -0.2732
      5 N          61.0353   95.4670   -1.7698 N.am    1  UNL1       -0.2541
      6 C          61.8603   95.1911   -0.5478 C.3     1  UNL1        0.1577
      7 C          61.2564   94.4624    0.6159 C.2     1  UNL1        0.2445
      8 O          62.0813   94.1864    1.8379 O.2     1  UNL1       -0.2731
      9 N          59.8275   94.0097    0.5577 N.am    1  UNL1       -0.2705
     10 C          59.0025   94.2856   -0.6644 C.3     1  UNL1        0.1359
     11 C          59.6065   95.0143   -1.8281 C.3     1  UNL1        0.1908
     12 N          58.7815   95.2903   -3.0501 N.am    1  UNL1       -0.1863
     13 C          57.3526   94.8376   -3.1084 C.2     1  UNL1        0.3191
     14 O          56.7487   94.1089   -1.9446 O.2     1  UNL1       -0.2512
     15 N          56.5277   95.1136   -4.3304 N.am    1  UNL1       -0.2836
     16 H          56.9241   95.5918   -5.0942 H       1  UNL1        0.1513
     17 C          58.5605   96.2950   -5.4359 C.3     1  UNL1        0.1188
     18 C          59.1451   94.1324   -6.7517 C.2     1  UNL1       -0.0034
     19 C          58.8845   95.6094   -6.7301 C.2     1  UNL1       -0.0071
     20 C          63.2891   95.6438   -0.4896 C.3     1  UNL1        0.0556
     21 C          64.0273   95.6309    0.8162 C.ar    1  UNL1       -0.0198
     22 C          64.8112   96.8351    1.2464 C.ar    1  UNL1       -0.0011
     23 C          65.5494   96.8223    2.5522 C.ar    1  UNL1        0.0363
     24 C          65.5036   95.6052    3.4276 C.ar    1  UNL1        0.1337
     25 O          66.2418   95.5923    4.7334 O.3     1  UNL1       -0.5055
     26 C          64.7196   94.4008    2.9974 C.ar    1  UNL1        0.0363
     27 C          63.9815   94.4137    1.6917 C.ar    1  UNL1       -0.0011
     28 H          66.7315   96.3446    5.0021 H       1  UNL1        0.2922
     29 C          59.2236   93.2810    1.7214 C.3     1  UNL1        0.1217
     30 C          60.0965   92.4722    2.6347 C.ar    1  UNL1        0.0135
     31 C          61.5680   92.3646    2.3647 C.ar    1  UNL1       -0.0012
     32 C          62.4409   91.5559    3.2779 C.ar    1  UNL1       -0.0002
     33 C          61.8422   90.8547    4.4611 C.ar    1  UNL1        0.0016
     34 C          60.3706   90.9623    4.7310 C.ar    1  UNL1        0.0214
     35 C          59.5036   90.3865    5.8111 C.ar    1  UNL1        0.0722
     36 C          58.0948   90.8393    5.5654 C.ar    1  UNL1        0.0805
     37 N          58.0913   91.6950    4.3335 N.ar    1  UNL1       -0.3241
     38 C          56.8918   92.3583    3.7242 C.3     1  UNL1        0.1305
     39 C          59.4978   91.7710    3.8178 C.ar    1  UNL1        0.0577
     40 C          59.9644   89.5113    6.9390 C.2     1  UNL1        0.2510
     41 O          60.3869   90.1257    8.2405 O.2     1  UNL1       -0.2698
     42 N          60.0027   88.0219    6.7652 N.am    1  UNL1       -0.2791
     43 H          59.7254   87.6188    5.9109 H       1  UNL1        0.1552
     44 C          60.4635   87.1468    7.8929 C.ar    1  UNL1        0.0701
     45 C          59.9602   87.3902    9.2848 C.ar    1  UNL1        0.0191
     46 C          60.4209   86.5151   10.4126 C.ar    1  UNL1        0.0354
     47 C          61.3849   85.3967   10.1485 C.ar    1  UNL1        0.1286
     48 N          61.8882   85.1533    8.7565 N.ar    1  UNL1       -0.2281
     49 C          61.4275   86.0284    7.6287 C.ar    1  UNL1        0.1149
     50 N          61.8457   84.5215   11.2762 N.pl3   1  UNL1       -0.3196
     51 H          61.6731   83.5527   11.2496 H       1  UNL1        0.1481
     52 C          62.5695   85.1226   12.4445 C.3     1  UNL1        0.0729
     53 C          62.9441   84.2648   13.6166 C.3     1  UNL1        0.0342
     54 C          63.6679   84.8658   14.7849 C.3     1  UNL1        0.0470
     55 C          64.3531   84.9732   16.1150 C.3     1  UNL1        0.0161
     56 C          63.5567   83.4443   15.2507 C.3     1  UNL1        0.0161
     57 N          64.0172   86.3246   14.7811 N.3     1  UNL1       -0.2764
     58 C          64.7410   86.9257   15.9494 C.3     1  UNL1        0.0895
     59 C          63.6426   87.1824   13.6090 C.3     1  UNL1        0.0470
     60 C          63.5025   88.3951   12.7375 C.3     1  UNL1        0.0161
     61 C          64.3177   88.2046   14.4746 C.3     1  UNL1        0.0161
     62 C          62.9188   86.5814   12.4407 C.3     1  UNL1        0.0342
     63 C          55.0988   94.6609   -4.3886 C.3     1  UNL1        0.1177
     64 C          54.0490   95.3881   -3.6019 C.ar    1  UNL1       -0.0025
     65 C          54.1609   95.4814   -2.1090 C.ar    1  UNL1       -0.0026
     66 C          53.1110   96.2086   -1.3222 C.ar    1  UNL1       -0.0003
     67 C          51.9493   96.8425   -2.0283 C.ar    1  UNL1       -0.0000
     68 C          51.8374   96.7491   -3.5213 C.ar    1  UNL1       -0.0003
     69 C          52.8872   96.0219   -4.3080 C.ar    1  UNL1       -0.0026
@<TRIPOS>BOND
     1    18    19    2
     2    19    17    1
     3    17     1    1
     4     1     2    1
     5     2     3    1
     6     3     4    2
     7     3     5   am
     8     5     6    1
     9     6    20    1
    10    20    21    1
    11    21    22   ar
    12    22    23   ar
    13    23    24   ar
    14    24    25    1
    15    24    26   ar
    16    26    27   ar
    17     6     7    1
    18     7     8    2
    19     7     9   am
    20     9    29    1
    21    29    30    1
    22    30    31   ar
    23    31    32   ar
    24    32    33   ar
    25    33    34   ar
    26    34    35   ar
    27    35    40    1
    28    40    41    2
    29    40    42   am
    30    42    44    1
    31    44    45   ar
    32    45    46   ar
    33    46    47   ar
    34    47    50    1
    35    50    52    1
    36    52    53    1
    37    53    54    1
    38    54    55    1
    39    54    56    1
    40    54    57    1
    41    57    58    1
    42    57    59    1
    43    59    60    1
    44    59    61    1
    45    59    62    1
    46    47    48   ar
    47    48    49   ar
    48    35    36   ar
    49    36    37   ar
    50    37    38    1
    51    37    39   ar
    52     9    10    1
    53    10    11    1
    54    11    12    1
    55    12    13   am
    56    13    14    2
    57    13    15   am
    58    15    63    1
    59    63    64    1
    60    64    65   ar
    61    65    66   ar
    62    66    67   ar
    63    67    68   ar
    64    68    69   ar
    65    12     1    1
    66    69    64   ar
    67    11     5    1
    68    27    21   ar
    69    39    30   ar
    70    39    34   ar
    71    49    44   ar
    72    62    52    1
    73    25    28    1
    74    42    43    1
    75    50    51    1
    76    15    16    1
@<TRIPOS>MOLECULE
*****
 69 76 0 0 0
SMALL
GASTEIGER

@<TRIPOS>ATOM
      1 N          64.6001   83.2060   13.2577 N.3     1  UNL1       -0.1862
      2 C          65.2291   84.0835   14.2990 C.3     1  UNL1        0.1775
      3 C          64.8092   85.5181   14.4242 C.2     1  UNL1        0.2452
      4 O          65.4383   86.3955   15.4656 O.2     1  UNL1       -0.2732
      5 N          63.7602   86.0752   13.5081 N.am    1  UNL1       -0.2541
      6 C          63.3403   87.5098   13.6333 C.3     1  UNL1        0.1577
      7 C          62.2914   88.0669   12.7172 C.2     1  UNL1        0.2445
      8 O          61.8715   89.5015   12.8424 O.2     1  UNL1       -0.2731
      9 N          61.6623   87.1894   11.6758 N.am    1  UNL1       -0.2705
     10 C          62.0822   85.7549   11.5506 C.3     1  UNL1        0.1359
     11 C          63.1312   85.1978   12.4668 C.3     1  UNL1        0.1908
     12 N          63.5511   83.7632   12.3416 N.am    1  UNL1       -0.1863
     13 C          62.9220   82.8857   11.3002 C.2     1  UNL1        0.3191
     14 O          61.8731   83.4429   10.3841 O.2     1  UNL1       -0.2512
     15 N          63.3419   81.4512   11.1750 N.am    1  UNL1       -0.2836
     16 H          64.0304   81.0855   11.7763 H       1  UNL1        0.1513
     17 C          65.0200   81.7715   13.1325 C.3     1  UNL1        0.1188
     18 C          62.8715   80.6762   14.0993 C.2     1  UNL1       -0.0034
     19 C          64.3662   80.7218   13.9814 C.2     1  UNL1       -0.0071
     20 C          63.9694   88.3872   14.6746 C.3     1  UNL1        0.0556
     21 C          64.5564   89.7113   14.2847 C.ar    1  UNL1       -0.0198
     22 C          64.2435   90.3045   12.9430 C.ar    1  UNL1       -0.0011
     23 C          64.8305   91.6286   12.5530 C.ar    1  UNL1        0.0363
     24 C          65.7304   92.3596   13.5047 C.ar    1  UNL1        0.1337
     25 O          66.3175   93.6837   13.1147 O.3     1  UNL1       -0.5055
     26 C          66.0434   91.7664   14.8465 C.ar    1  UNL1        0.0363
     27 C          65.4564   90.4423   15.2365 C.ar    1  UNL1       -0.0011
     28 H          66.1220   94.0542   12.2766 H       1  UNL1        0.2922
     29 C          60.6134   87.7466   10.7597 C.3     1  UNL1        0.1217
     30 C          60.9527   88.8715    9.8272 C.ar    1  UNL1        0.0135
     31 C          62.0022   89.8724   10.2102 C.ar    1  UNL1       -0.0012
     32 C          62.3416   90.9973    9.2778 C.ar    1  UNL1       -0.0002
     33 C          61.6315   91.1212    7.9624 C.ar    1  UNL1        0.0016
     34 C          60.5820   90.1203    7.5794 C.ar    1  UNL1        0.0214
     35 C          59.7207   89.9863    6.3587 C.ar    1  UNL1        0.0722
     36 C          58.8490   88.7787    6.5367 C.ar    1  UNL1        0.0805
     37 N          59.1716   88.1663    7.8674 N.ar    1  UNL1       -0.3241
     38 C          58.5349   86.9400    8.4512 C.3     1  UNL1        0.1305
     39 C          60.2426   88.9954    8.5118 C.ar    1  UNL1        0.0577
     40 C          59.7295   90.8997    5.1688 C.2     1  UNL1        0.2510
     41 O          58.4354   91.3898    4.5899 O.2     1  UNL1       -0.2698
     42 N          61.0325   91.3231    4.5579 N.am    1  UNL1       -0.2791
     43 H          61.8818   91.0014    4.9379 H       1  UNL1        0.1552
     44 C          61.0414   92.2364    3.3681 C.ar    1  UNL1        0.0701
     45 C          62.1560   92.1539    2.3677 C.ar    1  UNL1        0.0191
     46 C          62.1650   93.0672    1.1779 C.ar    1  UNL1        0.0354
     47 C          61.0594   94.0630    0.9885 C.ar    1  UNL1        0.1286
     48 N          59.9447   94.1455    1.9889 N.ar    1  UNL1       -0.2281
     49 C          59.9357   93.2322    3.1787 C.ar    1  UNL1        0.1149
     50 N          61.0683   94.9764   -0.2013 N.pl3   1  UNL1       -0.3196
     51 H          61.5625   95.8271   -0.1652 H       1  UNL1        0.1481
     52 C          60.3242   94.5936   -1.4463 C.3     1  UNL1        0.0729
     53 C          59.1354   93.6830   -1.3594 C.3     1  UNL1        0.0342
     54 C          58.3913   93.3002   -2.6042 C.3     1  UNL1        0.0470
     55 C          57.3695   92.6565   -3.4940 C.3     1  UNL1        0.0161
     56 C          57.5917   92.5488   -1.5815 C.3     1  UNL1        0.0161
     57 N          58.8359   93.8280   -3.9360 N.3     1  UNL1       -0.2764
     58 C          58.0918   93.4452   -5.1810 C.3     1  UNL1        0.0895
     59 C          60.0247   94.7386   -4.0230 C.3     1  UNL1        0.0470
     60 C          61.0826   95.6229   -4.6134 C.3     1  UNL1        0.0161
     61 C          59.6480   94.6630   -5.4729 C.3     1  UNL1        0.0161
     62 C          60.7688   95.1214   -2.7781 C.3     1  UNL1        0.0342
     63 C          62.7129   80.5737   10.1337 C.3     1  UNL1        0.1177
     64 C          63.0819   79.1220   10.0537 C.ar    1  UNL1       -0.0025
     65 C          62.5151   78.1484   11.0440 C.ar    1  UNL1       -0.0026
     66 C          62.8841   76.6967   10.9640 C.ar    1  UNL1       -0.0003
     67 C          63.8199   76.2186    9.8936 C.ar    1  UNL1       -0.0000
     68 C          64.3868   77.1922    8.9032 C.ar    1  UNL1       -0.0003
     69 C          64.0178   78.6439    8.9832 C.ar    1  UNL1       -0.0026
@<TRIPOS>BOND
     1    18    19    2
     2    19    17    1
     3    17     1    1
     4     1     2    1
     5     2     3    1
     6     3     4    2
     7     3     5   am
     8     5     6    1
     9     6    20    1
    10    20    21    1
    11    21    22   ar
    12    22    23   ar
    13    23    24   ar
    14    24    25    1
    15    24    26   ar
    16    26    27   ar
    17     6     7    1
    18     7     8    2
    19     7     9   am
    20     9    29    1
    21    29    30    1
    22    30    31   ar
    23    31    32   ar
    24    32    33   ar
    25    33    34   ar
    26    34    35   ar
    27    35    40    1
    28    40    41    2
    29    40    42   am
    30    42    44    1
    31    44    45   ar
    32    45    46   ar
    33    46    47   ar
    34    47    50    1
    35    50    52    1
    36    52    53    1
    37    53    54    1
    38    54    55    1
    39    54    56    1
    40    54    57    1
    41    57    58    1
    42    57    59    1
    43    59    60    1
    44    59    61    1
    45    59    62    1
    46    47    48   ar
    47    48    49   ar
    48    35    36   ar
    49    36    37   ar
    50    37    38    1
    51    37    39   ar
    52     9    10    1
    53    10    11    1
    54    11    12    1
    55    12    13   am
    56    13    14    2
    57    13    15   am
    58    15    63    1
    59    63    64    1
    60    64    65   ar
    61    65    66   ar
    62    66    67   ar
    63    67    68   ar
    64    68    69   ar
    65    12     1    1
    66    69    64   ar
    67    11     5    1
    68    27    21   ar
    69    39    30   ar
    70    39    34   ar
    71    49    44   ar
    72    62    52    1
    73    25    28    1
    74    42    43    1
    75    50    51    1
    76    15    16    1
