@<TRIPOS>MOLECULE
*****
 31 34 0 0 0
SMALL
GASTEIGER

@<TRIPOS>ATOM
      1 N          62.6483   90.5124   13.6928 N.pl3   1  UNL1       -0.2145
      2 H          62.0504   90.6562   14.4616 H       1  UNL1        0.1737
      3 C          66.8663   92.0767   13.7993 C.ar    1  UNL1        0.1520
      4 C          66.3523   91.2287   14.9248 C.ar    1  UNL1        0.0395
      5 C          64.9463   90.7072   14.8892 C.ar    1  UNL1        0.0190
      6 C          64.0543   91.0338   13.7283 C.ar    1  UNL1        0.0662
      7 C          64.5684   91.8818   12.6028 C.ar    1  UNL1        0.0334
      8 C          65.9744   92.4033   12.6384 C.ar    1  UNL1        0.0836
      9 N          66.4885   93.2513   11.5130 N.pl3   1  UNL1       -0.3023
     10 C          67.2500   92.6199   10.3854 C.3     1  UNL1        0.1080
     11 C          67.7640   93.4679    9.2600 C.3     1  UNL1        0.0903
     12 N          67.5167   94.9473    9.2621 N.3     1  UNL1       -0.2946
     13 C          66.7552   95.5788   10.3897 C.3     1  UNL1        0.0903
     14 C          66.2411   94.7308   11.5151 C.3     1  UNL1        0.1080
     15 H          67.0061   95.1617    8.4055 H       1  UNL1        0.1233
     16 C          68.9832   92.7495   15.1470 C.3     1  UNL1        0.2525
     17 O          68.2724   92.5981   13.8349 O.3     1  UNL1       -0.4702
     18 S          62.1533   89.7719   12.4859 S.O2    1  UNL1        0.0790
     19 O          63.5363   89.7931   11.9055 O.2     1  UNL1       -0.1495
     20 O          60.7703   89.7506   13.0663 O.2     1  UNL1       -0.1495
     21 C          61.6582   89.0313   11.2790 C.ar    1  UNL1        0.1506
     22 S          60.7538   89.5817   10.2165 S.2     1  UNL1       -0.0673
     23 C          60.5173   88.5009    9.2036 C.ar    1  UNL1        0.0305
     24 C          59.7094   88.4687    7.9401 C.ar    1  UNL1        0.0074
     25 C          59.6599   87.2182    7.1133 C.ar    1  UNL1        0.0119
     26 C          60.4182   85.9999    7.5498 C.ar    1  UNL1        0.0577
     27 CL         60.3686   84.7493    6.7229 Cl      1  UNL1       -0.0822
     28 C          61.2260   86.0320    8.8133 C.ar    1  UNL1        0.0116
     29 C          61.2756   87.2825    9.6401 C.ar    1  UNL1        0.0047
     30 C          61.9807   87.6104   10.9228 C.ar    1  UNL1        0.0037
     31 C          62.8549   86.6804   11.7109 C.3     1  UNL1        0.0330
@<TRIPOS>BOND
     1    16    17    1
     2    17     3    1
     3     3     4   ar
     4     4     5   ar
     5     5     6   ar
     6     6     1    1
     7     1    18    1
     8    18    19    2
     9    18    20    2
    10    18    21    1
    11    21    22   ar
    12    22    23   ar
    13    23    24   ar
    14    24    25   ar
    15    25    26   ar
    16    26    27    1
    17    26    28   ar
    18    28    29   ar
    19    29    30   ar
    20    30    31    1
    21     6     7   ar
    22     7     8   ar
    23     8     9    1
    24     9    10    1
    25    10    11    1
    26    11    12    1
    27    12    13    1
    28    13    14    1
    29     8     3   ar
    30    14     9    1
    31    30    21   ar
    32    29    23   ar
    33     1     2    1
    34    12    15    1
@<TRIPOS>MOLECULE
*****
 31 34 0 0 0
SMALL
GASTEIGER

@<TRIPOS>ATOM
      1 N          61.7647   88.8202   11.0229 N.pl3   1  UNL1       -0.2145
      2 H          60.8826   89.1695   10.7601 H       1  UNL1        0.1737
      3 C          62.8024   84.5117   10.2418 C.ar    1  UNL1        0.1520
      4 C          62.5369   85.4393    9.0933 C.ar    1  UNL1        0.0395
      5 C          62.1910   86.8754    9.3537 C.ar    1  UNL1        0.0190
      6 C          62.1106   87.3840   10.7626 C.ar    1  UNL1        0.0662
      7 C          62.3761   86.4564   11.9111 C.ar    1  UNL1        0.0334
      8 C          62.7220   85.0202   11.6506 C.ar    1  UNL1        0.0836
      9 N          62.9876   84.0926   12.7991 N.pl3   1  UNL1       -0.3023
     10 C          62.2954   82.7635   12.8652 C.3     1  UNL1        0.1080
     11 C          62.5609   81.8359   14.0137 C.3     1  UNL1        0.0903
     12 N          63.5186   82.2373   15.0961 N.3     1  UNL1       -0.2946
     13 C          64.2108   83.5665   15.0301 C.3     1  UNL1        0.0903
     14 C          63.9453   84.4941   13.8816 C.3     1  UNL1        0.1080
     15 H          64.2490   81.5259   15.1218 H       1  UNL1        0.1233
     16 C          64.5437   82.5835   10.2280 C.3     1  UNL1        0.2525
     17 O          63.1483   83.0755    9.9814 O.3     1  UNL1       -0.4702
     18 S          62.7628   89.7241   11.6838 S.O2    1  UNL1        0.0790
     19 O          62.0060   89.6161   12.9744 O.2     1  UNL1       -0.1495
     20 O          63.5196   89.8320   10.3932 O.2     1  UNL1       -0.1495
     21 C          63.7609   90.6280   12.3447 C.ar    1  UNL1        0.1506
     22 S          64.2449   91.9448   11.8139 S.2     1  UNL1       -0.0673
     23 C          65.2333   92.5045   12.7936 C.ar    1  UNL1        0.0305
     24 C          66.0342   93.7728   12.7977 C.ar    1  UNL1        0.0074
     25 C          66.9620   94.0701   13.9382 C.ar    1  UNL1        0.0119
     26 C          67.0890   93.0991   15.0745 C.ar    1  UNL1        0.0577
     27 CL         68.0168   93.3965   16.2150 Cl      1  UNL1       -0.0822
     28 C          66.2881   91.8309   15.0703 C.ar    1  UNL1        0.0116
     29 C          65.3603   91.5335   13.9299 C.ar    1  UNL1        0.0047
     30 C          64.4503   90.3738   13.6524 C.ar    1  UNL1        0.0037
     31 C          64.2626   89.1711   14.5289 C.3     1  UNL1        0.0330
@<TRIPOS>BOND
     1    16    17    1
     2    17     3    1
     3     3     4   ar
     4     4     5   ar
     5     5     6   ar
     6     6     1    1
     7     1    18    1
     8    18    19    2
     9    18    20    2
    10    18    21    1
    11    21    22   ar
    12    22    23   ar
    13    23    24   ar
    14    24    25   ar
    15    25    26   ar
    16    26    27    1
    17    26    28   ar
    18    28    29   ar
    19    29    30   ar
    20    30    31    1
    21     6     7   ar
    22     7     8   ar
    23     8     9    1
    24     9    10    1
    25    10    11    1
    26    11    12    1
    27    12    13    1
    28    13    14    1
    29     8     3   ar
    30    14     9    1
    31    30    21   ar
    32    29    23   ar
    33     1     2    1
    34    12    15    1
@<TRIPOS>MOLECULE
*****
 31 34 0 0 0
SMALL
GASTEIGER

@<TRIPOS>ATOM
      1 N          62.8807   90.2319   12.3381 N.pl3   1  UNL1       -0.2145
      2 H          62.0491   90.6847   12.0687 H       1  UNL1        0.1737
      3 C          66.4864   92.6577   13.5064 C.ar    1  UNL1        0.1520
      4 C          65.8685   91.7103   14.4916 C.ar    1  UNL1        0.0395
      5 C          64.6666   90.9017   14.1022 C.ar    1  UNL1        0.0190
      6 C          64.0826   91.0405   12.7275 C.ar    1  UNL1        0.0662
      7 C          64.7005   91.9879   11.7423 C.ar    1  UNL1        0.0334
      8 C          65.9024   92.7965   12.1317 C.ar    1  UNL1        0.0836
      9 N          66.5203   93.7439   11.1465 N.pl3   1  UNL1       -0.3023
     10 C          66.2699   95.2180   11.2651 C.3     1  UNL1        0.1080
     11 C          66.8878   96.1654   10.2799 C.3     1  UNL1        0.0903
     12 N          67.7561   95.6386    9.1760 N.3     1  UNL1       -0.2946
     13 C          68.0065   94.1644    9.0573 C.3     1  UNL1        0.0903
     14 C          67.3886   93.2170   10.0426 C.3     1  UNL1        0.1080
     15 H          68.6675   96.0846    9.2799 H       1  UNL1        0.1233
     16 C          68.1843   93.4387   15.3111 C.3     1  UNL1        0.2525
     17 O          67.6883   93.4663   13.8958 O.3     1  UNL1       -0.4702
     18 S          62.9459   88.7335   12.3592 S.O2    1  UNL1        0.0790
     19 O          63.1251   88.7623   13.8482 O.2     1  UNL1       -0.1495
     20 O          62.7668   88.7047   10.8703 O.2     1  UNL1       -0.1495
     21 C          63.0111   87.2351   12.3804 C.ar    1  UNL1        0.1506
     22 S          62.4116   86.3120   11.3613 S.2     1  UNL1       -0.0673
     23 C          62.7173   84.9030   11.7754 C.ar    1  UNL1        0.0305
     24 C          62.3795   83.5792   11.1562 C.ar    1  UNL1        0.0074
     25 C          62.8302   82.3077   11.8120 C.ar    1  UNL1        0.0119
     26 C          63.6187   82.3600   13.0870 C.ar    1  UNL1        0.0577
     27 CL         64.0694   81.0884   13.7428 Cl      1  UNL1       -0.0822
     28 C          63.9564   83.6838   13.7062 C.ar    1  UNL1        0.0116
     29 C          63.5057   84.9553   13.0504 C.ar    1  UNL1        0.0047
     30 C          63.6873   86.3966   13.4243 C.ar    1  UNL1        0.0037
     31 C          64.4171   86.9093   14.6303 C.3     1  UNL1        0.0330
@<TRIPOS>BOND
     1    16    17    1
     2    17     3    1
     3     3     4   ar
     4     4     5   ar
     5     5     6   ar
     6     6     1    1
     7     1    18    1
     8    18    19    2
     9    18    20    2
    10    18    21    1
    11    21    22   ar
    12    22    23   ar
    13    23    24   ar
    14    24    25   ar
    15    25    26   ar
    16    26    27    1
    17    26    28   ar
    18    28    29   ar
    19    29    30   ar
    20    30    31    1
    21     6     7   ar
    22     7     8   ar
    23     8     9    1
    24     9    10    1
    25    10    11    1
    26    11    12    1
    27    12    13    1
    28    13    14    1
    29     8     3   ar
    30    14     9    1
    31    30    21   ar
    32    29    23   ar
    33     1     2    1
    34    12    15    1
@<TRIPOS>MOLECULE
*****
 31 34 0 0 0
SMALL
GASTEIGER

@<TRIPOS>ATOM
      1 N          63.4365   89.1293   14.0073 N.pl3   1  UNL1       -0.2145
      2 H          63.3692   88.4506   14.7173 H       1  UNL1        0.1737
      3 C          66.1477   92.6811   14.5398 C.ar    1  UNL1        0.1520
      4 C          65.5079   92.0400   15.7355 C.ar    1  UNL1        0.0395
      5 C          64.6042   90.8561   15.5580 C.ar    1  UNL1        0.0190
      6 C          64.3402   90.3132   14.1848 C.ar    1  UNL1        0.0662
      7 C          64.9800   90.9543   12.9891 C.ar    1  UNL1        0.0334
      8 C          65.8838   92.1383   13.1666 C.ar    1  UNL1        0.0836
      9 N          66.5236   92.7794   11.9709 N.pl3   1  UNL1       -0.3023
     10 C          66.1216   94.1641   11.5574 C.3     1  UNL1        0.1080
     11 C          66.7614   94.8052   10.3617 C.3     1  UNL1        0.0903
     12 N          67.8032   94.0616    9.5796 N.3     1  UNL1       -0.2946
     13 C          68.2052   92.6769    9.9931 C.3     1  UNL1        0.0903
     14 C          67.5654   92.0358   11.1888 C.3     1  UNL1        0.1080
     15 H          68.6487   94.6318    9.5989 H       1  UNL1        0.1233
     16 C          68.2166   93.7848   15.6586 C.3     1  UNL1        0.2525
     17 O          67.0515   93.8651   14.7173 O.3     1  UNL1       -0.4702
     18 S          62.6353   88.9794   12.7481 S.O2    1  UNL1        0.0790
     19 O          61.7647   90.1275   13.1653 O.2     1  UNL1       -0.1495
     20 O          63.5058   87.8314   12.3308 O.2     1  UNL1       -0.1495
     21 C          61.8341   88.8296   11.4889 C.ar    1  UNL1        0.1506
     22 S          60.9721   87.6566   11.1266 S.2     1  UNL1       -0.0673
     23 C          60.3594   87.9285    9.7847 C.ar    1  UNL1        0.0305
     24 C          59.4239   87.1282    8.9278 C.ar    1  UNL1        0.0074
     25 C          58.9718   87.6689    7.6037 C.ar    1  UNL1        0.0119
     26 C          59.4551   89.0099    7.1366 C.ar    1  UNL1        0.0577
     27 CL         59.0028   89.5505    5.8125 Cl      1  UNL1       -0.0822
     28 C          60.3906   89.8101    7.9935 C.ar    1  UNL1        0.0116
     29 C          60.8428   89.2694    9.3176 C.ar    1  UNL1        0.0047
     30 C          61.7541   89.8263   10.3708 C.ar    1  UNL1        0.0037
     31 C          62.4613   91.1480   10.3156 C.3     1  UNL1        0.0330
@<TRIPOS>BOND
     1    16    17    1
     2    17     3    1
     3     3     4   ar
     4     4     5   ar
     5     5     6   ar
     6     6     1    1
     7     1    18    1
     8    18    19    2
     9    18    20    2
    10    18    21    1
    11    21    22   ar
    12    22    23   ar
    13    23    24   ar
    14    24    25   ar
    15    25    26   ar
    16    26    27    1
    17    26    28   ar
    18    28    29   ar
    19    29    30   ar
    20    30    31    1
    21     6     7   ar
    22     7     8   ar
    23     8     9    1
    24     9    10    1
    25    10    11    1
    26    11    12    1
    27    12    13    1
    28    13    14    1
    29     8     3   ar
    30    14     9    1
    31    30    21   ar
    32    29    23   ar
    33     1     2    1
    34    12    15    1
@<TRIPOS>MOLECULE
*****
 31 34 0 0 0
SMALL
GASTEIGER

@<TRIPOS>ATOM
      1 N          62.7217   89.9747   12.9330 N.pl3   1  UNL1       -0.2145
      2 H          61.8328   90.3880   12.8420 H       1  UNL1        0.1737
      3 C          66.3068   92.5305   13.8630 C.ar    1  UNL1        0.1520
      4 C          65.6405   91.7472   14.9550 C.ar    1  UNL1        0.0395
      5 C          64.4455   90.8953   14.6450 C.ar    1  UNL1        0.0190
      6 C          63.9167   90.8266   13.2430 C.ar    1  UNL1        0.0662
      7 C          64.5830   91.6098   12.1509 C.ar    1  UNL1        0.0334
      8 C          65.7781   92.4618   12.4609 C.ar    1  UNL1        0.0836
      9 N          66.4443   93.2451   11.3689 N.pl3   1  UNL1       -0.3023
     10 C          66.2220   94.7248   11.2644 C.3     1  UNL1        0.1080
     11 C          66.8883   95.5080   10.1723 C.3     1  UNL1        0.0903
     12 N          67.7769   94.8116    9.1848 N.3     1  UNL1       -0.2946
     13 C          67.9993   93.3318    9.2893 C.3     1  UNL1        0.0903
     14 C          67.3330   92.5485   10.3813 C.3     1  UNL1        0.1080
     15 H          68.6942   95.2527    9.2519 H       1  UNL1        0.1233
     16 C          67.9752   93.5235   15.5893 C.3     1  UNL1        0.2525
     17 O          67.5019   93.3824   14.1730 O.3     1  UNL1       -0.4702
     18 S          62.8810   88.4930   12.7617 S.O2    1  UNL1        0.0790
     19 O          64.1150   88.5272   13.6138 O.2     1  UNL1       -0.1495
     20 O          61.6470   88.4589   11.9096 O.2     1  UNL1       -0.1495
     21 C          63.0403   87.0114   12.5904 C.ar    1  UNL1        0.1506
     22 S          63.5966   86.0608   13.6087 S.2     1  UNL1       -0.0673
     23 C          63.5713   84.6821   13.0183 C.ar    1  UNL1        0.0305
     24 C          63.9952   83.3498   13.5616 C.ar    1  UNL1        0.0074
     25 C          63.8472   82.1159   12.7216 C.ar    1  UNL1        0.0119
     26 C          63.2754   82.2143   11.3384 C.ar    1  UNL1        0.0577
     27 CL         63.1274   80.9803   10.4984 Cl      1  UNL1       -0.0822
     28 C          62.8515   83.5466   10.7952 C.ar    1  UNL1        0.0116
     29 C          62.9995   84.7805   11.6351 C.ar    1  UNL1        0.0047
     30 C          62.6713   86.2201   11.3707 C.ar    1  UNL1        0.0037
     31 C          62.0781   86.7716   10.1081 C.3     1  UNL1        0.0330
@<TRIPOS>BOND
     1    16    17    1
     2    17     3    1
     3     3     4   ar
     4     4     5   ar
     5     5     6   ar
     6     6     1    1
     7     1    18    1
     8    18    19    2
     9    18    20    2
    10    18    21    1
    11    21    22   ar
    12    22    23   ar
    13    23    24   ar
    14    24    25   ar
    15    25    26   ar
    16    26    27    1
    17    26    28   ar
    18    28    29   ar
    19    29    30   ar
    20    30    31    1
    21     6     7   ar
    22     7     8   ar
    23     8     9    1
    24     9    10    1
    25    10    11    1
    26    11    12    1
    27    12    13    1
    28    13    14    1
    29     8     3   ar
    30    14     9    1
    31    30    21   ar
    32    29    23   ar
    33     1     2    1
    34    12    15    1
@<TRIPOS>MOLECULE
*****
 31 34 0 0 0
SMALL
GASTEIGER

@<TRIPOS>ATOM
      1 N          62.7044   90.2230   13.9495 N.pl3   1  UNL1       -0.2145
      2 H          61.9361   90.3601   14.5497 H       1  UNL1        0.1737
      3 C          66.3676   92.8044   14.3584 C.ar    1  UNL1        0.1520
      4 C          65.7585   92.1689   15.5730 C.ar    1  UNL1        0.0395
      5 C          64.5375   91.3085   15.4367 C.ar    1  UNL1        0.0190
      6 C          63.9254   91.0835   14.0858 C.ar    1  UNL1        0.0662
      7 C          64.5345   91.7190   12.8712 C.ar    1  UNL1        0.0334
      8 C          65.7556   92.5794   13.0076 C.ar    1  UNL1        0.0836
      9 N          66.3647   93.2149   11.7930 N.pl3   1  UNL1       -0.3023
     10 C          67.1493   92.3811   10.8239 C.3     1  UNL1        0.1080
     11 C          67.7584   93.0166    9.6094 C.3     1  UNL1        0.0903
     12 N          67.5829   94.4859    9.3639 N.3     1  UNL1       -0.2946
     13 C          66.7983   95.3198   10.3330 C.3     1  UNL1        0.0903
     14 C          66.1892   94.6843   11.5475 C.3     1  UNL1        0.1080
     15 H          67.1260   94.5804    8.4569 H       1  UNL1        0.1233
     16 C          68.4648   93.5372   15.7056 C.3     1  UNL1        0.2525
     17 O          67.5887   93.6649   14.4948 O.3     1  UNL1       -0.4702
     18 S          62.6538   89.1537   12.8988 S.O2    1  UNL1        0.0790
     19 O          63.9382   88.5806   13.4203 O.2     1  UNL1       -0.1495
     20 O          61.3695   89.7268   12.3773 O.2     1  UNL1       -0.1495
     21 C          62.6033   88.0844   11.8481 C.ar    1  UNL1        0.1506
     22 S          62.9255   86.6334   12.0505 S.2     1  UNL1       -0.0673
     23 C          62.7430   85.9305   10.7380 C.ar    1  UNL1        0.0305
     24 C          62.9168   84.4962   10.3349 C.ar    1  UNL1        0.0074
     25 C          62.6555   84.0785    8.9182 C.ar    1  UNL1        0.0119
     26 C          62.2205   85.0950    7.9046 C.ar    1  UNL1        0.0577
     27 CL         61.9592   84.6771    6.4878 Cl      1  UNL1       -0.0822
     28 C          62.0467   86.5293    8.3077 C.ar    1  UNL1        0.0116
     29 C          62.3080   86.9471    9.7244 C.ar    1  UNL1        0.0047
     30 C          62.2216   88.2782   10.4105 C.ar    1  UNL1        0.0037
     31 C          61.8235   89.5754    9.7711 C.3     1  UNL1        0.0330
@<TRIPOS>BOND
     1    16    17    1
     2    17     3    1
     3     3     4   ar
     4     4     5   ar
     5     5     6   ar
     6     6     1    1
     7     1    18    1
     8    18    19    2
     9    18    20    2
    10    18    21    1
    11    21    22   ar
    12    22    23   ar
    13    23    24   ar
    14    24    25   ar
    15    25    26   ar
    16    26    27    1
    17    26    28   ar
    18    28    29   ar
    19    29    30   ar
    20    30    31    1
    21     6     7   ar
    22     7     8   ar
    23     8     9    1
    24     9    10    1
    25    10    11    1
    26    11    12    1
    27    12    13    1
    28    13    14    1
    29     8     3   ar
    30    14     9    1
    31    30    21   ar
    32    29    23   ar
    33     1     2    1
    34    12    15    1
@<TRIPOS>MOLECULE
*****
 31 34 0 0 0
SMALL
GASTEIGER

@<TRIPOS>ATOM
      1 N          61.2668   89.4383   11.3953 N.pl3   1  UNL1       -0.2145
      2 H          60.3696   89.8139   11.5476 H       1  UNL1        0.1737
      3 C          61.7676   85.7812    8.8214 C.ar    1  UNL1        0.1520
      4 C          60.9999   86.9620    8.3055 C.ar    1  UNL1        0.0395
      5 C          60.8330   88.1810    9.1634 C.ar    1  UNL1        0.0190
      6 C          61.4337   88.2192   10.5374 C.ar    1  UNL1        0.0662
      7 C          62.2015   87.0384   11.0533 C.ar    1  UNL1        0.0334
      8 C          62.3684   85.8193   10.1953 C.ar    1  UNL1        0.0836
      9 N          63.1361   84.6385   10.7112 N.pl3   1  UNL1       -0.3023
     10 C          63.8266   83.7154    9.7516 C.3     1  UNL1        0.1080
     11 C          64.5943   82.5345   10.2675 C.3     1  UNL1        0.0903
     12 N          64.6716   82.2768   11.7431 N.3     1  UNL1       -0.2946
     13 C          63.9811   83.1999   12.7029 C.3     1  UNL1        0.0903
     14 C          63.2133   84.3808   12.1870 C.3     1  UNL1        0.1080
     15 H          65.6609   82.2803   11.9913 H       1  UNL1        0.1233
     16 C          61.9038   84.6869    6.4690 C.3     1  UNL1        0.2525
     17 O          61.9345   84.5621    7.9634 O.3     1  UNL1       -0.4702
     18 S          62.4668   90.0849   12.0212 S.O2    1  UNL1        0.0790
     19 O          61.8984   89.8206   13.3840 O.2     1  UNL1       -0.1495
     20 O          63.0352   90.3493   10.6585 O.2     1  UNL1       -0.1495
     21 C          63.6668   90.7316   12.6472 C.ar    1  UNL1        0.1506
     22 S          64.2655   92.0488   12.2515 S.2     1  UNL1       -0.0673
     23 C          65.4475   92.3059   13.1385 C.ar    1  UNL1        0.0305
     24 C          66.4208   93.4451   13.2086 C.ar    1  UNL1        0.0074
     25 C          67.5259   93.4260   14.2226 C.ar    1  UNL1        0.0119
     26 C          67.6577   92.2677   15.1666 C.ar    1  UNL1        0.0577
     27 CL         68.7629   92.2486   16.1807 Cl      1  UNL1       -0.0822
     28 C          66.6844   91.1285   15.0965 C.ar    1  UNL1        0.0116
     29 C          65.5793   91.1476   14.0824 C.ar    1  UNL1        0.0047
     30 C          64.4788   90.1747   13.7788 C.ar    1  UNL1        0.0037
     31 C          64.2333   88.8733   14.4831 C.3     1  UNL1        0.0330
@<TRIPOS>BOND
     1    16    17    1
     2    17     3    1
     3     3     4   ar
     4     4     5   ar
     5     5     6   ar
     6     6     1    1
     7     1    18    1
     8    18    19    2
     9    18    20    2
    10    18    21    1
    11    21    22   ar
    12    22    23   ar
    13    23    24   ar
    14    24    25   ar
    15    25    26   ar
    16    26    27    1
    17    26    28   ar
    18    28    29   ar
    19    29    30   ar
    20    30    31    1
    21     6     7   ar
    22     7     8   ar
    23     8     9    1
    24     9    10    1
    25    10    11    1
    26    11    12    1
    27    12    13    1
    28    13    14    1
    29     8     3   ar
    30    14     9    1
    31    30    21   ar
    32    29    23   ar
    33     1     2    1
    34    12    15    1
@<TRIPOS>MOLECULE
*****
 31 34 0 0 0
SMALL
GASTEIGER

@<TRIPOS>ATOM
      1 N          62.0165   89.4242   12.2262 N.pl3   1  UNL1       -0.2145
      2 H          61.1213   89.7499   12.4743 H       1  UNL1        0.1737
      3 C          65.3376   92.3555   11.4336 C.ar    1  UNL1        0.1520
      4 C          64.3470   92.0345   10.3539 C.ar    1  UNL1        0.0395
      5 C          63.2400   91.0574   10.6181 C.ar    1  UNL1        0.0190
      6 C          63.1235   90.4013   11.9620 C.ar    1  UNL1        0.0662
      7 C          64.1141   90.7223   13.0417 C.ar    1  UNL1        0.0334
      8 C          65.2211   91.6995   12.7775 C.ar    1  UNL1        0.0836
      9 N          66.2117   92.0205   13.8572 N.pl3   1  UNL1       -0.3023
     10 C          67.6823   91.9166   13.5808 C.3     1  UNL1        0.1080
     11 C          68.6729   92.2377   14.6605 C.3     1  UNL1        0.0903
     12 N          68.1928   92.6626   16.0165 N.3     1  UNL1       -0.2946
     13 C          66.7221   92.7665   16.2930 C.3     1  UNL1        0.0903
     14 C          65.7315   92.4455   15.2133 C.3     1  UNL1        0.1080
     15 H          68.5917   93.5843   16.1946 H       1  UNL1        0.1233
     16 C          66.2510   94.7873   11.4799 C.3     1  UNL1        0.2525
     17 O          66.4446   93.3327   11.1694 O.3     1  UNL1       -0.4702
     18 S          62.2736   87.9508   12.1123 S.O2    1  UNL1        0.0790
     19 O          60.9268   87.7648   11.4786 O.2     1  UNL1       -0.1495
     20 O          63.6204   88.1368   12.7459 O.2     1  UNL1       -0.1495
     21 C          62.5307   86.4774   11.9983 C.ar    1  UNL1        0.1506
     22 S          62.8559   85.5490   13.1307 S.2     1  UNL1       -0.0673
     23 C          63.0339   84.1715   12.5643 C.ar    1  UNL1        0.0305
     24 C          63.3642   82.8570   13.2068 C.ar    1  UNL1        0.0074
     25 C          63.4791   81.6195   12.3669 C.ar    1  UNL1        0.0119
     26 C          63.2638   81.6966   10.8845 C.ar    1  UNL1        0.0577
     27 CL         63.3788   80.4590   10.0446 Cl      1  UNL1       -0.0822
     28 C          62.9335   83.0111   10.2419 C.ar    1  UNL1        0.0116
     29 C          62.8186   84.2485   11.0818 C.ar    1  UNL1        0.0047
     30 C          62.5076   85.6736   10.7321 C.ar    1  UNL1        0.0037
     31 C          62.2233   86.2022    9.3573 C.3     1  UNL1        0.0330
@<TRIPOS>BOND
     1    16    17    1
     2    17     3    1
     3     3     4   ar
     4     4     5   ar
     5     5     6   ar
     6     6     1    1
     7     1    18    1
     8    18    19    2
     9    18    20    2
    10    18    21    1
    11    21    22   ar
    12    22    23   ar
    13    23    24   ar
    14    24    25   ar
    15    25    26   ar
    16    26    27    1
    17    26    28   ar
    18    28    29   ar
    19    29    30   ar
    20    30    31    1
    21     6     7   ar
    22     7     8   ar
    23     8     9    1
    24     9    10    1
    25    10    11    1
    26    11    12    1
    27    12    13    1
    28    13    14    1
    29     8     3   ar
    30    14     9    1
    31    30    21   ar
    32    29    23   ar
    33     1     2    1
    34    12    15    1
@<TRIPOS>MOLECULE
*****
 31 34 0 0 0
SMALL
GASTEIGER

@<TRIPOS>ATOM
      1 N          63.9784   86.4003   14.8284 N.pl3   1  UNL1       -0.2145
      2 H          64.2024   86.4574   15.7853 H       1  UNL1        0.1737
      3 C          63.6918   90.1502   12.3572 C.ar    1  UNL1        0.1520
      4 C          62.9619   88.9118   11.9285 C.ar    1  UNL1        0.0395
      5 C          63.0574   87.6619   12.7522 C.ar    1  UNL1        0.0190
      6 C          63.8829   87.6502   14.0047 C.ar    1  UNL1        0.0662
      7 C          64.6128   88.8886   14.4334 C.ar    1  UNL1        0.0334
      8 C          64.5172   90.1386   13.6096 C.ar    1  UNL1        0.0836
      9 N          65.2471   91.3769   14.0383 N.pl3   1  UNL1       -0.3023
     10 C          65.4439   91.6643   15.4973 C.3     1  UNL1        0.1080
     11 C          66.1738   92.9027   15.9260 C.3     1  UNL1        0.0903
     12 N          66.7069   93.8536   14.8957 N.3     1  UNL1       -0.2946
     13 C          66.5101   93.5662   13.4366 C.3     1  UNL1        0.0903
     14 C          65.7802   92.3278   13.0079 C.3     1  UNL1        0.1080
     15 H          67.7130   93.9206   15.0495 H       1  UNL1        0.1233
     16 C          63.1152   91.3283   10.1145 C.3     1  UNL1        0.2525
     17 O          63.5962   91.4001   11.5335 O.3     1  UNL1       -0.4702
     18 S          63.7326   85.0635   14.1940 S.O2    1  UNL1        0.0790
     19 O          65.1970   84.9362   13.8948 O.2     1  UNL1       -0.1495
     20 O          62.2683   85.1907   14.4932 O.2     1  UNL1       -0.1495
     21 C          63.4868   83.7266   13.5597 C.ar    1  UNL1        0.1506
     22 S          63.1825   82.4492   14.2847 S.2     1  UNL1       -0.0673
     23 C          63.0098   81.3655   13.2620 C.ar    1  UNL1        0.0305
     24 C          62.6982   79.9040   13.3912 C.ar    1  UNL1        0.0074
     25 C          62.5842   79.0501   12.1633 C.ar    1  UNL1        0.0119
     26 C          62.7818   79.6577   10.8062 C.ar    1  UNL1        0.0577
     27 CL         62.6678   78.8037    9.5783 Cl      1  UNL1       -0.0822
     28 C          63.0934   81.1192   10.6770 C.ar    1  UNL1        0.0116
     29 C          63.2075   81.9732   11.9049 C.ar    1  UNL1        0.0047
     30 C          63.5023   83.4324   12.0889 C.ar    1  UNL1        0.0037
     31 C          63.7662   84.4233   10.9942 C.3     1  UNL1        0.0330
@<TRIPOS>BOND
     1    16    17    1
     2    17     3    1
     3     3     4   ar
     4     4     5   ar
     5     5     6   ar
     6     6     1    1
     7     1    18    1
     8    18    19    2
     9    18    20    2
    10    18    21    1
    11    21    22   ar
    12    22    23   ar
    13    23    24   ar
    14    24    25   ar
    15    25    26   ar
    16    26    27    1
    17    26    28   ar
    18    28    29   ar
    19    29    30   ar
    20    30    31    1
    21     6     7   ar
    22     7     8   ar
    23     8     9    1
    24     9    10    1
    25    10    11    1
    26    11    12    1
    27    12    13    1
    28    13    14    1
    29     8     3   ar
    30    14     9    1
    31    30    21   ar
    32    29    23   ar
    33     1     2    1
    34    12    15    1
