@<TRIPOS>MOLECULE
*****
 39 45 0 0 0
SMALL
GASTEIGER

@<TRIPOS>ATOM
      1 N          56.7950   95.0942   -2.8216 N.pl3   1  UNL1       -0.3075
      2 C          56.8828   93.8877   -1.9345 C.3     1  UNL1        0.0911
      3 C          58.1536   93.5917   -1.1946 C.3     1  UNL1        0.0258
      4 C          59.3366   94.5021   -1.3417 C.3     1  UNL1        0.0256
      5 C          59.7881   93.4286   -0.3963 C.2     1  UNL1       -0.0304
      6 C          61.1337   94.0835   -0.2953 C.2     1  UNL1       -0.0219
      7 C          60.6823   95.1569   -1.2407 C.3     1  UNL1        0.0303
      8 C          59.2488   95.7085   -2.2287 C.3     1  UNL1        0.0258
      9 C          57.9780   96.0045   -2.9687 C.3     1  UNL1        0.0911
     10 CA         50.4157   96.3828   -5.0337 C.ar    1  UNL1        0.0952
     11 C          50.3903   96.1913   -3.5463 C.ar    1  UNL1        0.0203
     12 C          51.6611   95.8952   -2.8063 C.ar    1  UNL1        0.0031
     13 C          52.9573   95.7907   -3.5539 C.ar    1  UNL1        0.0189
     14 C          54.2281   95.4947   -2.8140 C.ar    1  UNL1        0.0160
     15 C          55.5243   95.3902   -3.5615 C.ar    1  UNL1        0.0479
     16 C          55.5497   95.5817   -5.0491 C.ar    1  UNL1        0.0161
     17 C          54.2790   95.8777   -5.7890 C.ar    1  UNL1        0.0204
     18 C          52.9827   95.9822   -5.0414 C.ar    1  UNL1        0.0814
     19 N          51.7119   96.2782   -5.7813 N.ar    1  UNL1       -0.2442
     20 O          47.8552   96.8227   -5.0215 O.co2   1  UNL1       -0.5430
     21 C          49.1449   96.6788   -5.7737 C.2     1  UNL1        0.0905
     22 OXT        49.1639   96.8309   -7.2658 O.co2   1  UNL1       -0.5430
     23 C          62.4045   93.7875    0.4446 C.ar    1  UNL1        0.0495
     24 C          63.7958   94.0337   -0.0590 C.ar    1  UNL1        0.1238
     25 N          64.7583   93.5917    1.0032 N.ar    1  UNL1       -0.0773
     26 O          63.9618   93.0722    2.1633 O.2     1  UNL1       -0.3578
     27 C          62.5071   93.1932    1.8181 C.ar    1  UNL1        0.1535
     28 C          64.1607   94.6193   -1.3909 C.ar    1  UNL1        0.0422
     29 C          64.8278   95.9608   -1.4631 C.ar    1  UNL1        0.0623
     30 CL         65.1301   96.7168   -0.2033 Cl      1  UNL1       -0.0821
     31 C          65.1926   96.5463   -2.7951 C.ar    1  UNL1        0.0411
     32 C          64.8903   95.7902   -4.0548 C.ar    1  UNL1        0.1418
     33 F          65.2551   96.3757   -5.3867 F       1  UNL1       -0.2041
     34 C          64.2231   94.4486   -3.9826 C.ar    1  UNL1        0.0411
     35 C          63.8583   93.8632   -2.6506 C.ar    1  UNL1        0.0623
     36 CL         63.1912   92.5216   -2.5784 Cl      1  UNL1       -0.0821
     37 C          61.3570   92.7907    2.6927 C.3     1  UNL1        0.0602
     38 C          60.8173   91.9976    3.8460 C.3     1  UNL1        0.0081
     39 C          59.9044   92.8864    3.0544 C.3     1  UNL1        0.0081
@<TRIPOS>UNITY_ATOM_ATTR
20 1
charge -1
@<TRIPOS>BOND
     1    20    21   ar
     2    21    22   ar
     3    21    10    1
     4    10    11   ar
     5    11    12   ar
     6    12    13   ar
     7    13    14   ar
     8    14    15   ar
     9    15     1    1
    10     1     2    1
    11     2     3    1
    12     3     4    1
    13     4     5    1
    14     5     6    2
    15     6    23    1
    16    23    24   ar
    17    24    28    1
    18    28    29   ar
    19    29    30    1
    20    29    31   ar
    21    31    32   ar
    22    32    33    1
    23    32    34   ar
    24    34    35   ar
    25    35    36    1
    26    24    25   ar
    27    25    26   ar
    28    26    27   ar
    29    27    37    1
    30    37    38    1
    31    38    39    1
    32     6     7    1
    33     4     8    1
    34     8     9    1
    35    15    16   ar
    36    16    17   ar
    37    17    18   ar
    38    18    19   ar
    39    19    10   ar
    40    18    13   ar
    41     9     1    1
    42     7     4    1
    43    27    23   ar
    44    39    37    1
    45    35    28   ar
@<TRIPOS>MOLECULE
*****
 39 45 0 0 0
SMALL
GASTEIGER

@<TRIPOS>ATOM
      1 N          57.2848   95.4140   -3.2341 N.pl3   1  UNL1       -0.3075
      2 C          57.6760   94.0574   -2.7275 C.3     1  UNL1        0.0911
      3 C          58.9913   93.8671   -2.0320 C.3     1  UNL1        0.0258
      4 C          59.9154   95.0335   -1.8431 C.3     1  UNL1        0.0256
      5 C          60.6279   93.8690   -1.2215 C.2     1  UNL1       -0.0304
      6 C          61.7755   94.7645   -0.8594 C.2     1  UNL1       -0.0219
      7 C          61.0630   95.9289   -1.4809 C.3     1  UNL1        0.0303
      8 C          59.5241   96.3901   -2.3497 C.3     1  UNL1        0.0258
      9 C          58.2088   96.5803   -3.0452 C.3     1  UNL1        0.0911
     10 CA         50.7679   96.3437   -5.2132 C.ar    1  UNL1        0.0952
     11 C          50.8277   96.3222   -3.7146 C.ar    1  UNL1        0.0203
     12 C          52.1430   96.1320   -3.0191 C.ar    1  UNL1        0.0031
     13 C          53.3986   95.9632   -3.8221 C.ar    1  UNL1        0.0189
     14 C          54.7139   95.7730   -3.1266 C.ar    1  UNL1        0.0160
     15 C          55.9694   95.6042   -3.9297 C.ar    1  UNL1        0.0479
     16 C          55.9098   95.6257   -5.4284 C.ar    1  UNL1        0.0161
     17 C          54.5945   95.8159   -6.1239 C.ar    1  UNL1        0.0204
     18 C          53.3388   95.9847   -5.3208 C.ar    1  UNL1        0.0814
     19 N          52.0235   96.1749   -6.0163 N.ar    1  UNL1       -0.2442
     20 O          48.2229   96.8559   -5.1126 O.co2   1  UNL1       -0.5430
     21 C          49.4526   96.5340   -5.9088 C.2     1  UNL1        0.0905
     22 OXT        49.3671   96.4022   -7.4005 O.co2   1  UNL1       -0.5430
     23 C          63.0908   94.5742   -0.1639 C.ar    1  UNL1        0.0495
     24 C          63.2883   93.9957    1.2059 C.ar    1  UNL1        0.1238
     25 N          64.7591   93.9930    1.5003 N.ar    1  UNL1       -0.0773
     26 O          65.4706   94.5700    0.3126 O.2     1  UNL1       -0.3578
     27 C          64.4396   94.9292   -0.7161 C.ar    1  UNL1        0.1535
     28 C          62.2051   93.5057    2.1206 C.ar    1  UNL1        0.0422
     29 C          61.0177   94.3754    2.4103 C.ar    1  UNL1        0.0623
     30 CL         60.9135   95.7349    1.7852 Cl      1  UNL1       -0.0821
     31 C          59.9346   93.8853    3.3250 C.ar    1  UNL1        0.0411
     32 C          60.0389   92.5258    3.9501 C.ar    1  UNL1        0.1418
     33 F          58.9557   92.0359    4.8648 F       1  UNL1       -0.2041
     34 C          61.2263   91.6562    3.6604 C.ar    1  UNL1        0.0411
     35 C          62.3094   92.1462    2.7456 C.ar    1  UNL1        0.0623
     36 CL         63.4968   91.2766    2.4560 Cl      1  UNL1       -0.0821
     37 C          64.7099   95.5367   -2.0606 C.3     1  UNL1        0.0602
     38 C          64.5542   95.5120   -3.5523 C.3     1  UNL1        0.0081
     39 C          65.3337   96.6136   -2.8978 C.3     1  UNL1        0.0081
@<TRIPOS>UNITY_ATOM_ATTR
20 1
charge -1
@<TRIPOS>BOND
     1    20    21   ar
     2    21    22   ar
     3    21    10    1
     4    10    11   ar
     5    11    12   ar
     6    12    13   ar
     7    13    14   ar
     8    14    15   ar
     9    15     1    1
    10     1     2    1
    11     2     3    1
    12     3     4    1
    13     4     5    1
    14     5     6    2
    15     6    23    1
    16    23    24   ar
    17    24    28    1
    18    28    29   ar
    19    29    30    1
    20    29    31   ar
    21    31    32   ar
    22    32    33    1
    23    32    34   ar
    24    34    35   ar
    25    35    36    1
    26    24    25   ar
    27    25    26   ar
    28    26    27   ar
    29    27    37    1
    30    37    38    1
    31    38    39    1
    32     6     7    1
    33     4     8    1
    34     8     9    1
    35    15    16   ar
    36    16    17   ar
    37    17    18   ar
    38    18    19   ar
    39    19    10   ar
    40    18    13   ar
    41     9     1    1
    42     7     4    1
    43    27    23   ar
    44    39    37    1
    45    35    28   ar
