@<TRIPOS>MOLECULE
*****
 36 39 0 0 0
SMALL
GASTEIGER

@<TRIPOS>ATOM
      1 C          64.3993   90.0139   14.1333 C.ar    1  UNL1        0.0005
      2 C          65.7383   90.6808   14.2437 C.ar    1  UNL1       -0.0002
      3 C          66.1062   91.7855   13.2980 C.ar    1  UNL1        0.0038
      4 C          65.1351   92.2232   12.2418 C.ar    1  UNL1        0.0712
      5 C          63.7961   91.5563   12.1314 C.ar    1  UNL1        0.0012
      6 C          63.4282   90.4516   13.0772 C.ar    1  UNL1       -0.0022
      7 C          63.3100   89.2242   16.3559 C.ar    1  UNL1        0.1386
      8 C          62.9421   88.1196   17.3016 C.ar    1  UNL1        0.0366
      9 C          63.2956   86.6999   16.9705 C.ar    1  UNL1       -0.0008
     10 C          64.0170   86.3850   15.6936 C.ar    1  UNL1       -0.0164
     11 C          64.3849   87.4896   14.7479 C.ar    1  UNL1       -0.0009
     12 C          64.0314   88.9092   15.0791 C.ar    1  UNL1        0.0334
     13 C          64.0359   91.6795   16.7970 C.3     1  UNL1        0.2525
     14 O          62.9564   90.6439   16.6870 O.3     1  UNL1       -0.4714
     15 C          64.3705   84.9653   15.3625 C.3     1  UNL1        0.0679
     16 C          63.3275   84.0435   14.8037 C.2     1  UNL1        0.0547
     17 O          62.1138   84.6071   14.1260 O.co2   1  UNL1       -0.5488
     18 O          63.4982   82.5580   14.9225 O.co2   1  UNL1       -0.5488
     19 C          65.5030   93.3278   11.2961 C.3     1  UNL1        0.4186
     20 F          65.8710   94.4324   10.3504 F       1  UNL1       -0.1659
     21 F          64.7105   92.6622   10.2104 F       1  UNL1       -0.1659
     22 F          66.2955   93.9934   12.3819 F       1  UNL1       -0.1659
     23 C          62.0891   89.7847   12.9668 C.3     1  UNL1        0.1235
     24 N          61.6133   89.2728   11.6395 N.am    1  UNL1       -0.2396
     25 C          60.6507   89.9657   10.7211 C.2     1  UNL1        0.4054
     26 O          59.9950   91.2918   10.9687 O.2     1  UNL1       -0.2262
     27 O          60.4590   89.0994    9.5115 O.3     1  UNL1       -0.4320
     28 C          61.3031   87.8712    9.6825 C.3     1  UNL1        0.2107
     29 C          62.0165   87.9784   10.9977 C.3     1  UNL1        0.1232
     30 C          62.9662   86.9686   11.5705 C.3     1  UNL1        0.0258
     31 C          61.4143   86.7353    8.7093 C.ar    1  UNL1        0.0190
     32 C          60.2289   86.3397    7.8796 C.ar    1  UNL1       -0.0008
     33 C          60.3401   85.2039    6.9063 C.ar    1  UNL1       -0.0002
     34 C          61.6367   84.4634    6.7627 C.ar    1  UNL1       -0.0000
     35 C          62.8222   84.8590    7.5924 C.ar    1  UNL1       -0.0002
     36 C          62.7109   85.9949    8.5657 C.ar    1  UNL1       -0.0008
@<TRIPOS>UNITY_ATOM_ATTR
17 1
charge -1
@<TRIPOS>BOND
     1    13    14    1
     2    14     7    1
     3     7     8   ar
     4     8     9   ar
     5     9    10   ar
     6    10    15    1
     7    15    16    1
     8    16    17   ar
     9    16    18   ar
    10    10    11   ar
    11    11    12   ar
    12    12     1    1
    13     1     2   ar
    14     2     3   ar
    15     3     4   ar
    16     4    19    1
    17    19    20    1
    18    19    21    1
    19    19    22    1
    20     4     5   ar
    21     5     6   ar
    22     6    23    1
    23    23    24    1
    24    24    25   am
    25    25    26    2
    26    25    27    1
    27    27    28    1
    28    28    31    1
    29    31    32   ar
    30    32    33   ar
    31    33    34   ar
    32    34    35   ar
    33    35    36   ar
    34    28    29    1
    35    29    30    1
    36    12     7   ar
    37     6     1   ar
    38    29    24    1
    39    36    31   ar
@<TRIPOS>MOLECULE
*****
 36 39 0 0 0
SMALL
GASTEIGER

@<TRIPOS>ATOM
      1 C          62.7208   89.8170   12.1031 C.ar    1  UNL1        0.0005
      2 C          61.6599   90.5340   11.3219 C.ar    1  UNL1       -0.0002
      3 C          60.7171   89.7585   10.4503 C.ar    1  UNL1        0.0038
      4 C          60.8352   88.2658   10.3600 C.ar    1  UNL1        0.0712
      5 C          61.8961   87.5488   11.1412 C.ar    1  UNL1        0.0012
      6 C          62.8389   88.3244   12.0128 C.ar    1  UNL1       -0.0022
      7 C          63.5221   90.5381   14.4670 C.ar    1  UNL1        0.1386
      8 C          64.4649   91.3137   15.3385 C.ar    1  UNL1        0.0366
      9 C          65.5491   92.1438   14.7178 C.ar    1  UNL1       -0.0008
     10 C          65.6906   92.1983   13.2255 C.ar    1  UNL1       -0.0164
     11 C          64.7478   91.4227   12.3540 C.ar    1  UNL1       -0.0009
     12 C          63.6636   90.5926   12.9747 C.ar    1  UNL1        0.0334
     13 C          62.4875   89.3823   16.5511 C.3     1  UNL1        0.2525
     14 O          62.4379   89.7080   15.0878 O.3     1  UNL1       -0.4714
     15 C          66.7749   93.0284   12.6047 C.3     1  UNL1        0.0679
     16 C          67.0857   92.8855   11.1443 C.2     1  UNL1        0.0547
     17 O          68.3120   92.1399   10.7079 O.co2   1  UNL1       -0.5488
     18 O          66.1703   93.4881   10.1201 O.co2   1  UNL1       -0.5488
     19 C          59.8925   87.4903    9.4884 C.3     1  UNL1        0.4186
     20 F          58.9497   86.7147    8.6168 F       1  UNL1       -0.1659
     21 F          60.3642   86.2120   10.1155 F       1  UNL1       -0.1659
     22 F          59.4207   88.7686    8.8613 F       1  UNL1       -0.1659
     23 C          63.8998   87.6074   12.7940 C.3     1  UNL1        0.1235
     24 N          63.5905   86.2932   13.4480 N.am    1  UNL1       -0.2396
     25 C          63.5684   86.0266   14.9239 C.2     1  UNL1        0.4054
     26 O          63.8517   87.0270   16.0050 O.2     1  UNL1       -0.2262
     27 O          63.2133   84.5836   15.1289 O.3     1  UNL1       -0.4320
     28 C          63.0159   83.9587   13.7796 C.3     1  UNL1        0.2107
     29 C          63.2491   85.0153   12.7408 C.3     1  UNL1        0.1232
     30 C          63.1570   84.8270   11.2555 C.3     1  UNL1        0.0258
     31 C          62.6497   82.5283   13.5156 C.ar    1  UNL1        0.0190
     32 C          61.5999   81.8564   14.3502 C.ar    1  UNL1       -0.0008
     33 C          61.2338   80.4260   14.0862 C.ar    1  UNL1       -0.0002
     34 C          61.9173   79.6674   12.9875 C.ar    1  UNL1       -0.0000
     35 C          62.9672   80.3391   12.1528 C.ar    1  UNL1       -0.0002
     36 C          63.3333   81.7696   12.4169 C.ar    1  UNL1       -0.0008
@<TRIPOS>UNITY_ATOM_ATTR
17 1
charge -1
@<TRIPOS>BOND
     1    13    14    1
     2    14     7    1
     3     7     8   ar
     4     8     9   ar
     5     9    10   ar
     6    10    15    1
     7    15    16    1
     8    16    17   ar
     9    16    18   ar
    10    10    11   ar
    11    11    12   ar
    12    12     1    1
    13     1     2   ar
    14     2     3   ar
    15     3     4   ar
    16     4    19    1
    17    19    20    1
    18    19    21    1
    19    19    22    1
    20     4     5   ar
    21     5     6   ar
    22     6    23    1
    23    23    24    1
    24    24    25   am
    25    25    26    2
    26    25    27    1
    27    27    28    1
    28    28    31    1
    29    31    32   ar
    30    32    33   ar
    31    33    34   ar
    32    34    35   ar
    33    35    36   ar
    34    28    29    1
    35    29    30    1
    36    12     7   ar
    37     6     1   ar
    38    29    24    1
    39    36    31   ar
@<TRIPOS>MOLECULE
*****
 36 39 0 0 0
SMALL
GASTEIGER

@<TRIPOS>ATOM
      1 C          62.2374   86.3160   11.0381 C.ar    1  UNL1        0.0005
      2 C          61.8925   85.6214    9.7541 C.ar    1  UNL1       -0.0002
      3 C          61.0993   86.3391    8.7027 C.ar    1  UNL1        0.0038
      4 C          60.6509   87.7516    8.9352 C.ar    1  UNL1        0.0712
      5 C          60.9958   88.4462   10.2191 C.ar    1  UNL1        0.0012
      6 C          61.7891   87.7284   11.2706 C.ar    1  UNL1       -0.0022
      7 C          63.7237   84.3101   11.7573 C.ar    1  UNL1        0.1386
      8 C          64.5170   83.5924   12.8087 C.ar    1  UNL1        0.0366
      9 C          64.6171   84.1627   14.1925 C.ar    1  UNL1       -0.0008
     10 C          63.9240   85.4508   14.5247 C.ar    1  UNL1       -0.0164
     11 C          63.1308   86.1685   13.4733 C.ar    1  UNL1       -0.0009
     12 C          63.0307   85.5982   12.0896 C.ar    1  UNL1        0.0334
     13 C          64.0428   82.3232   10.1141 C.3     1  UNL1        0.2525
     14 O          63.6236   83.7398   10.3736 O.3     1  UNL1       -0.4714
     15 C          64.0241   86.0211   15.9085 C.3     1  UNL1        0.0679
     16 C          62.8314   85.9970   16.8177 C.2     1  UNL1        0.0547
     17 O          61.5802   85.2858   16.3949 O.co2   1  UNL1       -0.5488
     18 O          62.8899   86.6841   18.1498 O.co2   1  UNL1       -0.5488
     19 C          59.8577   88.4694    7.8837 C.3     1  UNL1        0.4186
     20 F          59.0644   89.1871    6.8323 F       1  UNL1       -0.1659
     21 F          60.0792   89.7671    8.6025 F       1  UNL1       -0.1659
     22 F          59.6362   87.1716    7.1649 F       1  UNL1       -0.1659
     23 C          62.1339   88.4231   12.5546 C.3     1  UNL1        0.1235
     24 N          63.1468   89.5295   12.5601 N.am    1  UNL1       -0.2396
     25 C          63.3679   90.5278   11.4625 C.2     1  UNL1        0.4054
     26 O          62.6151   90.5949   10.1669 O.2     1  UNL1       -0.2262
     27 O          64.4741   91.4472   11.8882 O.3     1  UNL1       -0.4320
     28 C          64.9366   91.0171   13.2488 C.3     1  UNL1        0.2107
     29 C          64.1162   89.8319   13.6640 C.3     1  UNL1        0.1232
     30 C          64.2431   89.0809   14.9562 C.3     1  UNL1        0.0258
     31 C          66.0277   91.6594   14.0529 C.ar    1  UNL1        0.0190
     32 C          67.4083   91.7833   13.4797 C.ar    1  UNL1       -0.0008
     33 C          68.4995   92.4256   14.2838 C.ar    1  UNL1       -0.0002
     34 C          68.2102   92.9440   15.6613 C.ar    1  UNL1       -0.0000
     35 C          66.8295   92.8201   16.2347 C.ar    1  UNL1       -0.0002
     36 C          65.7384   92.1777   15.4305 C.ar    1  UNL1       -0.0008
@<TRIPOS>UNITY_ATOM_ATTR
17 1
charge -1
@<TRIPOS>BOND
     1    13    14    1
     2    14     7    1
     3     7     8   ar
     4     8     9   ar
     5     9    10   ar
     6    10    15    1
     7    15    16    1
     8    16    17   ar
     9    16    18   ar
    10    10    11   ar
    11    11    12   ar
    12    12     1    1
    13     1     2   ar
    14     2     3   ar
    15     3     4   ar
    16     4    19    1
    17    19    20    1
    18    19    21    1
    19    19    22    1
    20     4     5   ar
    21     5     6   ar
    22     6    23    1
    23    23    24    1
    24    24    25   am
    25    25    26    2
    26    25    27    1
    27    27    28    1
    28    28    31    1
    29    31    32   ar
    30    32    33   ar
    31    33    34   ar
    32    34    35   ar
    33    35    36   ar
    34    28    29    1
    35    29    30    1
    36    12     7   ar
    37     6     1   ar
    38    29    24    1
    39    36    31   ar
@<TRIPOS>MOLECULE
*****
 36 39 0 0 0
SMALL
GASTEIGER

@<TRIPOS>ATOM
      1 C          62.9714   90.0613   10.7702 C.ar    1  UNL1        0.0005
      2 C          63.7275   91.1356   10.0461 C.ar    1  UNL1       -0.0002
      3 C          64.6325   92.0586   10.8069 C.ar    1  UNL1        0.0038
      4 C          64.7815   91.9074   12.2919 C.ar    1  UNL1        0.0712
      5 C          64.0254   90.8331   13.0160 C.ar    1  UNL1        0.0012
      6 C          63.1204   89.9101   12.2551 C.ar    1  UNL1       -0.0022
      7 C          60.6195   89.4891    9.8261 C.ar    1  UNL1        0.1386
      8 C          59.7145   88.5661    9.0652 C.ar    1  UNL1        0.0366
      9 C          60.2564   87.2922    8.4876 C.ar    1  UNL1       -0.0008
     10 C          61.7031   86.9413    8.6708 C.ar    1  UNL1       -0.0164
     11 C          62.6081   87.8644    9.4317 C.ar    1  UNL1       -0.0009
     12 C          62.0663   89.1383   10.0093 C.ar    1  UNL1        0.0334
     13 C          59.1191   90.7158   11.5564 C.3     1  UNL1        0.2525
     14 O          60.0777   90.7630   10.4037 O.3     1  UNL1       -0.4714
     15 C          62.2450   85.6674    8.0932 C.3     1  UNL1        0.0679
     16 C          61.5878   85.0478    6.8957 C.2     1  UNL1        0.0547
     17 O          62.4263   84.5153    5.7716 O.co2   1  UNL1       -0.5488
     18 O          60.0921   84.9606    6.8222 O.co2   1  UNL1       -0.5488
     19 C          65.6865   92.8304   13.0527 C.3     1  UNL1        0.4186
     20 F          66.5916   93.7535   13.8135 F       1  UNL1       -0.1659
     21 F          65.6100   93.8272   11.9345 F       1  UNL1       -0.1659
     22 F          65.7631   91.8337   14.1709 F       1  UNL1       -0.1659
     23 C          62.3643   88.8358   12.9791 C.3     1  UNL1        0.1235
     24 N          62.9799   87.4805   13.1648 N.am    1  UNL1       -0.2396
     25 C          64.1577   87.1591   14.0363 C.2     1  UNL1        0.4054
     26 O          64.9267   88.1364   14.8751 O.2     1  UNL1       -0.2262
     27 O          64.4314   85.6887   13.9218 O.3     1  UNL1       -0.4320
     28 C          63.4228   85.1014   12.9795 C.3     1  UNL1        0.2107
     29 C          62.5257   86.2089   12.5117 C.3     1  UNL1        0.1232
     30 C          61.3763   86.0692   11.5582 C.3     1  UNL1        0.0258
     31 C          63.3280   83.6600   12.5758 C.ar    1  UNL1        0.0190
     32 C          63.6306   83.2550   11.1636 C.ar    1  UNL1       -0.0008
     33 C          63.5357   81.8135   10.7600 C.ar    1  UNL1       -0.0002
     34 C          63.1382   80.7768   11.7686 C.ar    1  UNL1       -0.0000
     35 C          62.8356   81.1817   13.1809 C.ar    1  UNL1       -0.0002
     36 C          62.9305   82.6233   13.5845 C.ar    1  UNL1       -0.0008
@<TRIPOS>UNITY_ATOM_ATTR
17 1
charge -1
@<TRIPOS>BOND
     1    13    14    1
     2    14     7    1
     3     7     8   ar
     4     8     9   ar
     5     9    10   ar
     6    10    15    1
     7    15    16    1
     8    16    17   ar
     9    16    18   ar
    10    10    11   ar
    11    11    12   ar
    12    12     1    1
    13     1     2   ar
    14     2     3   ar
    15     3     4   ar
    16     4    19    1
    17    19    20    1
    18    19    21    1
    19    19    22    1
    20     4     5   ar
    21     5     6   ar
    22     6    23    1
    23    23    24    1
    24    24    25   am
    25    25    26    2
    26    25    27    1
    27    27    28    1
    28    28    31    1
    29    31    32   ar
    30    32    33   ar
    31    33    34   ar
    32    34    35   ar
    33    35    36   ar
    34    28    29    1
    35    29    30    1
    36    12     7   ar
    37     6     1   ar
    38    29    24    1
    39    36    31   ar
@<TRIPOS>MOLECULE
*****
 36 39 0 0 0
SMALL
GASTEIGER

@<TRIPOS>ATOM
      1 C          62.7787   84.5144   11.2934 C.ar    1  UNL1        0.0005
      2 C          63.2994   83.4243   10.4043 C.ar    1  UNL1       -0.0002
      3 C          63.1593   83.5399    8.9154 C.ar    1  UNL1        0.0038
      4 C          62.4985   84.7455    8.3155 C.ar    1  UNL1        0.0712
      5 C          61.9779   85.8356    9.2046 C.ar    1  UNL1        0.0012
      6 C          62.1180   85.7201   10.6936 C.ar    1  UNL1       -0.0022
      7 C          62.5335   83.1256   13.4754 C.ar    1  UNL1        0.1386
      8 C          62.6736   83.0101   14.9644 C.ar    1  UNL1        0.0366
      9 C          63.1990   84.1678   15.7603 C.ar    1  UNL1       -0.0008
     10 C          63.5843   85.4411   15.0673 C.ar    1  UNL1       -0.0164
     11 C          63.4442   85.5566   13.5784 C.ar    1  UNL1       -0.0009
     12 C          62.9188   84.3989   12.7824 C.ar    1  UNL1        0.0334
     13 C          62.3726   80.5651   13.0658 C.3     1  UNL1        0.2525
     14 O          62.0081   81.9678   12.6795 O.3     1  UNL1       -0.4714
     15 C          64.1097   86.5989   15.8633 C.3     1  UNL1        0.0679
     16 C          63.2045   87.3312   16.8089 C.2     1  UNL1        0.0547
     17 O          62.6801   86.6396   18.0323 O.co2   1  UNL1       -0.5488
     18 O          62.8238   88.7553   16.5312 O.co2   1  UNL1       -0.5488
     19 C          62.3585   84.8611    6.8265 C.3     1  UNL1        0.4186
     20 F          62.2184   84.9766    5.3376 F       1  UNL1       -0.1659
     21 F          60.9178   85.2446    6.9918 F       1  UNL1       -0.1659
     22 F          63.7991   84.4775    6.6612 F       1  UNL1       -0.1659
     23 C          61.5973   86.8102   11.5827 C.3     1  UNL1        0.1235
     24 N          62.0099   88.2327   11.3455 N.am    1  UNL1       -0.2396
     25 C          61.3771   89.1838   10.3734 C.2     1  UNL1        0.4054
     26 O          60.2207   88.8794    9.4678 O.2     1  UNL1       -0.2262
     27 O          62.1038   90.4928   10.4659 O.3     1  UNL1       -0.4320
     28 C          63.1857   90.3506   11.4952 C.3     1  UNL1        0.2107
     29 C          63.1276   88.9538   12.0388 C.3     1  UNL1        0.1232
     30 C          64.0290   88.3790   13.0909 C.3     1  UNL1        0.0258
     31 C          64.1554   91.4178   11.9082 C.ar    1  UNL1        0.0190
     32 C          64.6027   91.5127   13.3368 C.ar    1  UNL1       -0.0008
     33 C          65.5724   92.5799   13.7499 C.ar    1  UNL1       -0.0002
     34 C          66.0948   93.5524   12.7344 C.ar    1  UNL1       -0.0000
     35 C          65.6475   93.4577   11.3057 C.ar    1  UNL1       -0.0002
     36 C          64.6778   92.3904   10.8927 C.ar    1  UNL1       -0.0008
@<TRIPOS>UNITY_ATOM_ATTR
17 1
charge -1
@<TRIPOS>BOND
     1    13    14    1
     2    14     7    1
     3     7     8   ar
     4     8     9   ar
     5     9    10   ar
     6    10    15    1
     7    15    16    1
     8    16    17   ar
     9    16    18   ar
    10    10    11   ar
    11    11    12   ar
    12    12     1    1
    13     1     2   ar
    14     2     3   ar
    15     3     4   ar
    16     4    19    1
    17    19    20    1
    18    19    21    1
    19    19    22    1
    20     4     5   ar
    21     5     6   ar
    22     6    23    1
    23    23    24    1
    24    24    25   am
    25    25    26    2
    26    25    27    1
    27    27    28    1
    28    28    31    1
    29    31    32   ar
    30    32    33   ar
    31    33    34   ar
    32    34    35   ar
    33    35    36   ar
    34    28    29    1
    35    29    30    1
    36    12     7   ar
    37     6     1   ar
    38    29    24    1
    39    36    31   ar
@<TRIPOS>MOLECULE
*****
 36 39 0 0 0
SMALL
GASTEIGER

@<TRIPOS>ATOM
      1 C          63.1621   89.6645   12.5816 C.ar    1  UNL1        0.0005
      2 C          62.2837   90.3386   11.5697 C.ar    1  UNL1       -0.0002
      3 C          61.5379   89.5185   10.5591 C.ar    1  UNL1        0.0038
      4 C          61.6705   88.0243   10.5605 C.ar    1  UNL1        0.0712
      5 C          62.5489   87.3503   11.5724 C.ar    1  UNL1        0.0012
      6 C          63.2948   88.1704   12.5830 C.ar    1  UNL1       -0.0022
      7 C          63.5007   90.4484   15.0354 C.ar    1  UNL1        0.1386
      8 C          64.2465   91.2685   16.0459 C.ar    1  UNL1        0.0366
      9 C          65.3995   92.1248   15.6132 C.ar    1  UNL1       -0.0008
     10 C          65.8068   92.1611   14.1701 C.ar    1  UNL1       -0.0164
     11 C          65.0610   91.3410   13.1596 C.ar    1  UNL1       -0.0009
     12 C          63.9079   90.4846   13.5922 C.ar    1  UNL1        0.0334
     13 C          62.3040   89.0418   16.8628 C.3     1  UNL1        0.2525
     14 O          62.3477   89.5921   15.4681 O.3     1  UNL1       -0.4714
     15 C          66.9598   93.0174   13.7374 C.3     1  UNL1        0.0679
     16 C          68.3409   92.4363   13.6677 C.2     1  UNL1        0.0547
     17 O          69.3481   92.7667   14.7291 O.co2   1  UNL1       -0.5488
     18 O          68.7149   91.5247   12.5367 O.co2   1  UNL1       -0.5488
     19 C          60.9247   87.2043    9.5499 C.3     1  UNL1        0.4186
     20 F          60.1789   86.3843    8.5393 F       1  UNL1       -0.1659
     21 F          62.2238   86.8046    8.9155 F       1  UNL1       -0.1659
     22 F          59.6256   87.6040   10.1843 F       1  UNL1       -0.1659
     23 C          64.1732   87.4964   13.5949 C.3     1  UNL1        0.1235
     24 N          63.7760   86.1674   14.1662 N.am    1  UNL1       -0.2396
     25 C          63.6342   85.8411   15.6234 C.2     1  UNL1        0.4054
     26 O          63.8645   86.7863   16.7651 O.2     1  UNL1       -0.2262
     27 O          63.2215   84.4035   15.7384 O.3     1  UNL1       -0.4320
     28 C          63.1084   83.8415   14.3523 C.3     1  UNL1        0.2107
     29 C          63.4511   84.9316   13.3806 C.3     1  UNL1        0.1232
     30 C          63.4663   84.8078   11.8859 C.3     1  UNL1        0.0258
     31 C          62.7206   82.4361   13.9997 C.ar    1  UNL1        0.0190
     32 C          61.3631   81.9170   14.3708 C.ar    1  UNL1       -0.0008
     33 C          60.9754   80.5116   14.0183 C.ar    1  UNL1       -0.0002
     34 C          61.9451   79.6251   13.2946 C.ar    1  UNL1       -0.0000
     35 C          63.3027   80.1441   12.9234 C.ar    1  UNL1       -0.0002
     36 C          63.6903   81.5496   13.2760 C.ar    1  UNL1       -0.0008
@<TRIPOS>UNITY_ATOM_ATTR
17 1
charge -1
@<TRIPOS>BOND
     1    13    14    1
     2    14     7    1
     3     7     8   ar
     4     8     9   ar
     5     9    10   ar
     6    10    15    1
     7    15    16    1
     8    16    17   ar
     9    16    18   ar
    10    10    11   ar
    11    11    12   ar
    12    12     1    1
    13     1     2   ar
    14     2     3   ar
    15     3     4   ar
    16     4    19    1
    17    19    20    1
    18    19    21    1
    19    19    22    1
    20     4     5   ar
    21     5     6   ar
    22     6    23    1
    23    23    24    1
    24    24    25   am
    25    25    26    2
    26    25    27    1
    27    27    28    1
    28    28    31    1
    29    31    32   ar
    30    32    33   ar
    31    33    34   ar
    32    34    35   ar
    33    35    36   ar
    34    28    29    1
    35    29    30    1
    36    12     7   ar
    37     6     1   ar
    38    29    24    1
    39    36    31   ar
