@<TRIPOS>MOLECULE
*****
 33 38 0 0 0
SMALL
GASTEIGER

@<TRIPOS>ATOM
      1 C          60.9678   93.0693    2.3947 C.ar    1  UNL1        0.1028
      2 C          62.2829   93.5281    2.9514 C.ar    1  UNL1        0.0131
      3 C          63.2823   94.2004    2.0574 C.ar    1  UNL1       -0.0015
      4 C          63.2731   94.5639    0.5620 C.ar    1  UNL1        0.0035
      5 C          62.0242   93.8817    1.0359 C.ar    1  UNL1        0.0358
      6 C          60.6519   93.2828    0.9440 C.ar    1  UNL1        0.1545
      7 O          59.3655   92.8585    0.2999 O.3     1  UNL1       -0.4528
      8 C          58.3605   92.6732   -0.7982 C.ar    1  UNL1        0.1450
      9 C          56.6432   92.0226   -1.3155 C.ar    1  UNL1        0.0372
     10 C          55.8243   91.9602   -2.5706 C.ar    1  UNL1       -0.0014
     11 C          56.3693   92.5216   -3.8503 C.ar    1  UNL1       -0.0243
     12 C          57.7411   93.0922   -3.6440 C.ar    1  UNL1       -0.0052
     13 C          57.7902   92.7553   -2.1831 C.ar    1  UNL1        0.0345
     14 C          58.2209   93.6326   -4.9584 C.3     1  UNL1        0.0980
     15 C          57.1457   93.3960   -5.9772 C.3     1  UNL1        0.0290
     16 C          56.0013   92.7094   -5.2924 C.3     1  UNL1        0.0281
     17 N          59.1566   94.2943   -5.9263 N.am    1  UNL1       -0.2763
     18 C          59.2692   94.6992   -7.3662 C.3     1  UNL1        0.0956
     19 C          60.6054   95.3523   -7.5609 C.3     1  UNL1        0.0466
     20 C          61.7777   95.5753   -6.3083 C.3     1  UNL1        0.1337
     21 N          63.0642   95.9997   -5.6641 N.3     1  UNL1       -0.2863
     22 C          64.0692   96.1849   -4.5661 C.3     1  UNL1        0.1151
     23 C          64.6396   96.1028   -3.1812 C.ar    1  UNL1        0.0739
     24 C          65.9295   96.7765   -3.5451 C.ar    1  UNL1        0.1147
     25 N          66.7756   96.8559   -2.3091 N.ar    1  UNL1       -0.2226
     26 C          66.0088   96.2314   -1.1813 C.ar    1  UNL1        0.1786
     27 N          64.6886   95.7660   -1.7203 N.ar    1  UNL1       -0.3070
     28 C          64.2087   95.2255   -0.4059 C.3     1  UNL1        0.1341
     29 C          60.4055   94.9765   -6.4003 C.2     1  UNL1        0.2401
     30 O          60.0709   95.0026   -7.1234 O.2     1  UNL1       -0.2734
     31 H          63.0122   96.9806   -5.9390 H       1  UNL1        0.1240
     32 N          58.9690   91.7246    4.1826 N.1     1  UNL1       -0.1907
     33 C          59.9684   92.3969    3.2887 C.1     1  UNL1        0.1035
@<TRIPOS>BOND
     1    32    33    3
     2    33     1    1
     3     1     2   ar
     4     2     3   ar
     5     3     4   ar
     6     4     5   ar
     7     5     6   ar
     8     6     7    1
     9     7     8    1
    10     8     9   ar
    11     9    10   ar
    12    10    11   ar
    13    11    12   ar
    14    12    13   ar
    15    12    14    1
    16    14    15    1
    17    15    16    1
    18    14    17    1
    19    17    18    1
    20    18    19    1
    21    20    19    1
    22    20    21    1
    23    21    22    1
    24    22    23    1
    25    23    24   ar
    26    24    25   ar
    27    25    26   ar
    28    26    27   ar
    29    27    28    1
    30    20    29    1
    31    29    30    2
    32     6     1   ar
    33    13     8   ar
    34    29    17   am
    35    28     4    1
    36    16    11    1
    37    27    23   ar
    38    21    31    1
