@<TRIPOS>MOLECULE
*****
 34 37 0 0 0
SMALL
GASTEIGER

@<TRIPOS>ATOM
      1 N          62.2518   86.7861   11.5275 N.am    1  UNL1       -0.2683
      2 C          63.0270   87.7775   12.3438 C.2     1  UNL1        0.3047
      3 O          64.2722   87.3477   13.0614 O.2     1  UNL1       -0.2525
      4 N          62.5572   89.1985   12.4424 N.am    1  UNL1       -0.2863
      5 H          61.4346   87.0682   11.0565 H       1  UNL1        0.1564
      6 H          61.7400   89.4806   11.9714 H       1  UNL1        0.1512
      7 C          63.3324   90.1898   13.2587 C.3     1  UNL1        0.1020
      8 C          63.2801   90.1321   14.7567 C.3     1  UNL1        0.0642
      9 C          64.0554   91.1235   15.5729 C.3     1  UNL1        0.1353
     10 C          64.6101   91.8364   16.7704 C.3     1  UNL1        0.0437
     11 C          63.4205   90.3221   16.6705 C.3     1  UNL1        0.0437
     12 O          64.8829   92.1725   14.8912 O.3     1  UNL1       -0.4805
     13 C          64.9352   92.2301   13.3932 C.ar    1  UNL1        0.1629
     14 C          64.1600   91.2389   12.5770 C.ar    1  UNL1        0.0319
     15 C          64.2123   91.2965   11.0790 C.ar    1  UNL1        0.0004
     16 C          65.0399   92.3455   10.3973 C.ar    1  UNL1        0.0061
     17 C          65.8151   93.3368   11.2135 C.ar    1  UNL1        0.1018
     18 C          65.7628   93.2791   12.7115 C.ar    1  UNL1        0.1774
     19 F          66.5381   94.2705   13.5278 F       1  UNL1       -0.2010
     20 C          66.6427   94.3858   10.5318 C.3     1  UNL1        0.4208
     21 F          67.4703   95.4348    9.8501 F       1  UNL1       -0.1658
     22 F          65.6900   95.4440   11.0036 F       1  UNL1       -0.1658
     23 F          67.5953   93.3276   10.0600 F       1  UNL1       -0.1658
     24 C          62.3666   84.8894   16.5910 C.3     1  UNL1        0.0521
     25 C          62.6903   84.2978   15.2512 C.ar    1  UNL1        0.0594
     26 C          62.5442   85.1272   14.0100 C.ar    1  UNL1        0.0160
     27 C          62.8679   84.5356   12.6701 C.ar    1  UNL1        0.0162
     28 C          62.7217   85.3651   11.4289 C.ar    1  UNL1        0.0516
     29 C          63.0454   84.7734   10.0890 C.ar    1  UNL1        0.0147
     30 C          63.5153   83.3523    9.9904 C.ar    1  UNL1        0.0013
     31 C          63.6615   82.5229   11.2316 C.ar    1  UNL1        0.0016
     32 C          63.3378   83.1145   12.5715 C.ar    1  UNL1        0.0204
     33 C          63.4839   82.2851   13.8127 C.ar    1  UNL1        0.0984
     34 N          63.1602   82.8767   15.1525 N.ar    1  UNL1       -0.2481
@<TRIPOS>BOND
     1    24    25    1
     2    25    26   ar
     3    26    27   ar
     4    27    28   ar
     5    28     1    1
     6     1     2   am
     7     2     3    2
     8     2     4   am
     9     7     4    1
    10     7     8    1
    11     8     9    1
    12     9    10    1
    13     9    11    1
    14     9    12    1
    15    12    13    1
    16    13    14   ar
    17    14    15   ar
    18    15    16   ar
    19    16    17   ar
    20    17    20    1
    21    20    21    1
    22    20    22    1
    23    20    23    1
    24    17    18   ar
    25    18    19    1
    26    28    29   ar
    27    29    30   ar
    28    30    31   ar
    29    31    32   ar
    30    32    33   ar
    31    33    34   ar
    32    34    25   ar
    33    32    27   ar
    34    14     7    1
    35    18    13   ar
    36     1     5    1
    37     4     6    1
@<TRIPOS>MOLECULE
*****
 34 37 0 0 0
SMALL
GASTEIGER

@<TRIPOS>ATOM
      1 N          61.2831   87.6361   11.2750 N.am    1  UNL1       -0.2683
      2 C          62.3246   88.5099   11.9089 C.2     1  UNL1        0.3047
      3 O          63.7717   88.3260   11.5596 O.2     1  UNL1       -0.2525
      4 N          61.9190   89.5676   12.8921 N.am    1  UNL1       -0.2863
      5 H          60.3333   87.7568   11.5043 H       1  UNL1        0.1564
      6 H          60.9692   89.6883   13.1214 H       1  UNL1        0.1512
      7 C          62.9604   90.4414   13.5260 C.3     1  UNL1        0.1020
      8 C          63.1321   90.4434   15.0161 C.3     1  UNL1        0.0642
      9 C          64.1736   91.3173   15.6499 C.3     1  UNL1        0.1353
     10 C          65.0143   91.9666   16.7089 C.3     1  UNL1        0.0437
     11 C          63.5957   90.6709   16.8740 C.3     1  UNL1        0.0437
     12 O          65.0434   92.1891   14.7936 O.3     1  UNL1       -0.4805
     13 C          64.8718   92.1871   13.3035 C.ar    1  UNL1        0.1629
     14 C          63.8303   91.3133   12.6696 C.ar    1  UNL1        0.0319
     15 C          63.6587   91.3113   11.1795 C.ar    1  UNL1        0.0004
     16 C          64.5285   92.1831   10.3232 C.ar    1  UNL1        0.0061
     17 C          65.5700   93.0569   10.9570 C.ar    1  UNL1        0.1018
     18 C          65.7416   93.0589   12.4472 C.ar    1  UNL1        0.1774
     19 F          66.7832   93.9327   13.0810 F       1  UNL1       -0.2010
     20 C          66.4399   93.9287   10.1007 C.3     1  UNL1        0.4208
     21 F          67.3098   94.8005    9.2444 F       1  UNL1       -0.1658
     22 F          65.4284   95.0322   10.1966 F       1  UNL1       -0.1658
     23 F          67.4513   92.8253   10.0048 F       1  UNL1       -0.1658
     24 C          63.9614   83.8944   14.1170 C.3     1  UNL1        0.0521
     25 C          63.5961   84.0365   12.6691 C.ar    1  UNL1        0.0594
     26 C          62.8251   85.2363   12.2044 C.ar    1  UNL1        0.0160
     27 C          62.4598   85.3785   10.7565 C.ar    1  UNL1        0.0162
     28 C          61.6888   86.5784   10.2919 C.ar    1  UNL1        0.0516
     29 C          61.3234   86.7205    8.8440 C.ar    1  UNL1        0.0147
     30 C          61.7291   85.6628    7.8608 C.ar    1  UNL1        0.0013
     31 C          62.5001   84.4629    8.3255 C.ar    1  UNL1        0.0016
     32 C          62.8654   84.3208    9.7733 C.ar    1  UNL1        0.0204
     33 C          63.6364   83.1210   10.2380 C.ar    1  UNL1        0.0984
     34 N          64.0017   82.9788   11.6859 N.ar    1  UNL1       -0.2481
@<TRIPOS>BOND
     1    24    25    1
     2    25    26   ar
     3    26    27   ar
     4    27    28   ar
     5    28     1    1
     6     1     2   am
     7     2     3    2
     8     2     4   am
     9     7     4    1
    10     7     8    1
    11     8     9    1
    12     9    10    1
    13     9    11    1
    14     9    12    1
    15    12    13    1
    16    13    14   ar
    17    14    15   ar
    18    15    16   ar
    19    16    17   ar
    20    17    20    1
    21    20    21    1
    22    20    22    1
    23    20    23    1
    24    17    18   ar
    25    18    19    1
    26    28    29   ar
    27    29    30   ar
    28    30    31   ar
    29    31    32   ar
    30    32    33   ar
    31    33    34   ar
    32    34    25   ar
    33    32    27   ar
    34    14     7    1
    35    18    13   ar
    36     1     5    1
    37     4     6    1
@<TRIPOS>MOLECULE
*****
 34 37 0 0 0
SMALL
GASTEIGER

@<TRIPOS>ATOM
      1 N          63.0014   90.3156   13.8924 N.am    1  UNL1       -0.2683
      2 C          63.3795   88.9155   13.5093 C.2     1  UNL1        0.3047
      3 O          64.6865   88.3395   13.9676 O.2     1  UNL1       -0.2525
      4 N          62.4506   88.0914   12.6678 N.am    1  UNL1       -0.2863
      5 H          62.1436   90.6937   13.5916 H       1  UNL1        0.1564
      6 H          61.5928   88.4694   12.3670 H       1  UNL1        0.1512
      7 C          62.8288   86.6914   12.2847 C.3     1  UNL1        0.1020
      8 C          63.4361   85.7731   13.3035 C.3     1  UNL1        0.0642
      9 C          63.8143   84.3730   12.9203 C.3     1  UNL1        0.1353
     10 C          64.3348   82.9712   13.0384 C.3     1  UNL1        0.0437
     11 C          64.2242   84.3679   14.3632 C.3     1  UNL1        0.0437
     12 O          63.5850   83.8912   11.5185 O.3     1  UNL1       -0.4805
     13 C          62.9777   84.8095   10.4997 C.ar    1  UNL1        0.1629
     14 C          62.5996   86.2095   10.8828 C.ar    1  UNL1        0.0319
     15 C          61.9922   87.1278    9.8640 C.ar    1  UNL1        0.0004
     16 C          61.7630   86.6460    8.4621 C.ar    1  UNL1        0.0061
     17 C          62.1412   85.2460    8.0790 C.ar    1  UNL1        0.1018
     18 C          62.7485   84.3277    9.0978 C.ar    1  UNL1        0.1774
     19 F          63.1266   82.9276    8.7146 F       1  UNL1       -0.2010
     20 C          61.9120   84.7641    6.6771 C.3     1  UNL1        0.4208
     21 F          61.6827   84.2823    5.2752 F       1  UNL1       -0.1658
     22 F          63.3939   84.6560    6.4719 F       1  UNL1       -0.1658
     23 F          60.4300   84.8722    6.8823 F       1  UNL1       -0.1658
     24 C          66.4372   92.6852   10.4528 C.3     1  UNL1        0.0521
     25 C          66.2749   92.7109   11.9438 C.ar    1  UNL1        0.0594
     26 C          65.1837   91.9125   12.5934 C.ar    1  UNL1        0.0160
     27 C          65.0214   91.9382   14.0843 C.ar    1  UNL1        0.0162
     28 C          63.9302   91.1397   14.7339 C.ar    1  UNL1        0.0516
     29 C          63.7679   91.1654   16.2248 C.ar    1  UNL1        0.0147
     30 C          64.6969   91.9896   17.0663 C.ar    1  UNL1        0.0013
     31 C          65.7880   92.7880   16.4167 C.ar    1  UNL1        0.0016
     32 C          65.9503   92.7623   14.9258 C.ar    1  UNL1        0.0204
     33 C          67.0414   93.5607   14.2762 C.ar    1  UNL1        0.0984
     34 N          67.2037   93.5349   12.7853 N.ar    1  UNL1       -0.2481
@<TRIPOS>BOND
     1    24    25    1
     2    25    26   ar
     3    26    27   ar
     4    27    28   ar
     5    28     1    1
     6     1     2   am
     7     2     3    2
     8     2     4   am
     9     7     4    1
    10     7     8    1
    11     8     9    1
    12     9    10    1
    13     9    11    1
    14     9    12    1
    15    12    13    1
    16    13    14   ar
    17    14    15   ar
    18    15    16   ar
    19    16    17   ar
    20    17    20    1
    21    20    21    1
    22    20    22    1
    23    20    23    1
    24    17    18   ar
    25    18    19    1
    26    28    29   ar
    27    29    30   ar
    28    30    31   ar
    29    31    32   ar
    30    32    33   ar
    31    33    34   ar
    32    34    25   ar
    33    32    27   ar
    34    14     7    1
    35    18    13   ar
    36     1     5    1
    37     4     6    1
@<TRIPOS>MOLECULE
*****
 34 37 0 0 0
SMALL
GASTEIGER

@<TRIPOS>ATOM
      1 N          62.6444   86.8642   12.5135 N.am    1  UNL1       -0.2683
      2 C          63.4181   87.9739   13.1618 C.2     1  UNL1        0.3047
      3 O          64.6122   87.6579   14.0129 O.2     1  UNL1       -0.2525
      4 N          62.9977   89.3994   12.9591 N.am    1  UNL1       -0.2863
      5 H          61.8607   87.0716   11.9549 H       1  UNL1        0.1564
      6 H          62.2140   89.6067   12.4005 H       1  UNL1        0.1512
      7 C          63.7714   90.5089   13.6074 C.3     1  UNL1        0.1020
      8 C          63.7988   90.6302   15.1022 C.3     1  UNL1        0.0642
      9 C          64.5725   91.7398   15.7505 C.3     1  UNL1        0.1353
     10 C          65.1576   92.6113   16.8221 C.3     1  UNL1        0.0437
     11 C          64.0294   91.0543   16.9692 C.3     1  UNL1        0.0437
     12 O          65.3188   92.7280   14.9040 O.3     1  UNL1       -0.4805
     13 C          65.2913   92.6066   13.4092 C.ar    1  UNL1        0.1629
     14 C          64.5177   91.4971   12.7609 C.ar    1  UNL1        0.0319
     15 C          64.4902   91.3757   11.2660 C.ar    1  UNL1        0.0004
     16 C          65.2365   92.3639   10.4195 C.ar    1  UNL1        0.0061
     17 C          66.0101   93.4734   11.0678 C.ar    1  UNL1        0.1018
     18 C          66.0376   93.5948   12.5627 C.ar    1  UNL1        0.1774
     19 F          66.8113   94.7044   13.2110 F       1  UNL1       -0.2010
     20 C          66.7564   94.4616   10.2213 C.3     1  UNL1        0.4208
     21 F          67.5027   95.4498    9.3748 F       1  UNL1       -0.1658
     22 F          67.7707   93.4086    9.8862 F       1  UNL1       -0.1658
     23 F          65.7422   95.5146   10.5565 F       1  UNL1       -0.1658
     24 C          63.0235   84.6952    7.5737 C.3     1  UNL1        0.0521
     25 C          63.2441   84.1683    8.9607 C.ar    1  UNL1        0.0594
     26 C          63.0442   85.0669   10.1450 C.ar    1  UNL1        0.0160
     27 C          63.2648   84.5400   11.5320 C.ar    1  UNL1        0.0162
     28 C          63.0649   85.4387   12.7162 C.ar    1  UNL1        0.0516
     29 C          63.2854   84.9119   14.1032 C.ar    1  UNL1        0.0147
     30 C          63.7059   83.4863   14.3060 C.ar    1  UNL1        0.0013
     31 C          63.9057   82.5877   13.1217 C.ar    1  UNL1        0.0016
     32 C          63.6852   83.1145   11.7347 C.ar    1  UNL1        0.0204
     33 C          63.8850   82.2159   10.5505 C.ar    1  UNL1        0.0984
     34 N          63.6645   82.7428    9.1635 N.ar    1  UNL1       -0.2481
@<TRIPOS>BOND
     1    24    25    1
     2    25    26   ar
     3    26    27   ar
     4    27    28   ar
     5    28     1    1
     6     1     2   am
     7     2     3    2
     8     2     4   am
     9     7     4    1
    10     7     8    1
    11     8     9    1
    12     9    10    1
    13     9    11    1
    14     9    12    1
    15    12    13    1
    16    13    14   ar
    17    14    15   ar
    18    15    16   ar
    19    16    17   ar
    20    17    20    1
    21    20    21    1
    22    20    22    1
    23    20    23    1
    24    17    18   ar
    25    18    19    1
    26    28    29   ar
    27    29    30   ar
    28    30    31   ar
    29    31    32   ar
    30    32    33   ar
    31    33    34   ar
    32    34    25   ar
    33    32    27   ar
    34    14     7    1
    35    18    13   ar
    36     1     5    1
    37     4     6    1
@<TRIPOS>MOLECULE
*****
 34 37 0 0 0
SMALL
GASTEIGER

@<TRIPOS>ATOM
      1 N          62.1070   89.7219   13.2974 N.am    1  UNL1       -0.2683
      2 C          62.5212   88.5020   12.5289 C.2     1  UNL1        0.3047
      3 O          63.8890   87.9192   12.7273 O.2     1  UNL1       -0.2525
      4 N          61.5675   87.8651   11.5620 N.am    1  UNL1       -0.2863
      5 H          61.2093   90.1044   13.1672 H       1  UNL1        0.1564
      6 H          60.6698   88.2477   11.4318 H       1  UNL1        0.1512
      7 C          61.9817   86.6453   10.7936 C.3     1  UNL1        0.1020
      8 C          61.9925   86.6716    9.2938 C.3     1  UNL1        0.0642
      9 C          62.4067   85.4517    8.5254 C.3     1  UNL1        0.1353
     10 C          62.7184   84.5568    7.3627 C.3     1  UNL1        0.0437
     11 C          62.1116   86.3869    7.3903 C.3     1  UNL1        0.0437
     12 O          62.8100   84.2057    9.2566 O.3     1  UNL1       -0.4805
     13 C          62.7992   84.1795   10.7564 C.ar    1  UNL1        0.1629
     14 C          62.3851   85.3993   11.5248 C.ar    1  UNL1        0.0319
     15 C          62.3742   85.3731   13.0246 C.ar    1  UNL1        0.0004
     16 C          62.7776   84.1271   13.7558 C.ar    1  UNL1        0.0061
     17 C          63.1917   82.9073   12.9874 C.ar    1  UNL1        0.1018
     18 C          63.2026   82.9335   11.4876 C.ar    1  UNL1        0.1774
     19 F          63.6168   81.7137   10.7192 F       1  UNL1       -0.2010
     20 C          63.5951   81.6612   13.7186 C.3     1  UNL1        0.4208
     21 F          63.9984   80.4152   14.4499 F       1  UNL1       -0.1658
     22 F          64.9074   81.6596   12.9921 F       1  UNL1       -0.1658
     23 F          62.2829   81.6629   14.4452 F       1  UNL1       -0.1658
     24 C          65.5010   92.6966   10.3172 C.3     1  UNL1        0.0521
     25 C          65.3678   92.4306   11.7874 C.ar    1  UNL1        0.0594
     26 C          64.2809   91.5277   12.2908 C.ar    1  UNL1        0.0160
     27 C          64.1476   91.2617   13.7610 C.ar    1  UNL1        0.0162
     28 C          63.0607   90.3588   14.2643 C.ar    1  UNL1        0.0516
     29 C          62.9274   90.0928   15.7345 C.ar    1  UNL1        0.0147
     30 C          63.8811   90.7297   16.7014 C.ar    1  UNL1        0.0013
     31 C          64.9680   91.6326   16.1980 C.ar    1  UNL1        0.0016
     32 C          65.1013   91.8986   14.7278 C.ar    1  UNL1        0.0204
     33 C          66.1882   92.8015   14.2245 C.ar    1  UNL1        0.0984
     34 N          66.3214   93.0675   12.7543 N.ar    1  UNL1       -0.2481
@<TRIPOS>BOND
     1    24    25    1
     2    25    26   ar
     3    26    27   ar
     4    27    28   ar
     5    28     1    1
     6     1     2   am
     7     2     3    2
     8     2     4   am
     9     7     4    1
    10     7     8    1
    11     8     9    1
    12     9    10    1
    13     9    11    1
    14     9    12    1
    15    12    13    1
    16    13    14   ar
    17    14    15   ar
    18    15    16   ar
    19    16    17   ar
    20    17    20    1
    21    20    21    1
    22    20    22    1
    23    20    23    1
    24    17    18   ar
    25    18    19    1
    26    28    29   ar
    27    29    30   ar
    28    30    31   ar
    29    31    32   ar
    30    32    33   ar
    31    33    34   ar
    32    34    25   ar
    33    32    27   ar
    34    14     7    1
    35    18    13   ar
    36     1     5    1
    37     4     6    1
@<TRIPOS>MOLECULE
*****
 34 37 0 0 0
SMALL
GASTEIGER

@<TRIPOS>ATOM
      1 N          61.2229   88.1553   11.7304 N.am    1  UNL1       -0.2683
      2 C          62.3776   88.9159   12.3122 C.2     1  UNL1        0.3047
      3 O          63.7799   88.4266   12.1024 O.2     1  UNL1       -0.2525
      4 N          62.1298   90.1656   13.1038 N.am    1  UNL1       -0.2863
      5 H          60.3025   88.4764   11.8681 H       1  UNL1        0.1564
      6 H          61.2094   90.4867   13.2416 H       1  UNL1        0.1512
      7 C          63.2844   90.9261   13.6856 C.3     1  UNL1        0.1020
      8 C          63.4775   90.9750   15.1723 C.3     1  UNL1        0.0642
      9 C          64.6322   91.7355   15.7541 C.3     1  UNL1        0.1353
     10 C          65.5653   92.3193   16.7731 C.3     1  UNL1        0.0437
     11 C          63.9947   91.2267   17.0129 C.3     1  UNL1        0.0437
     12 O          65.5937   92.4471   14.8491 O.3     1  UNL1       -0.4805
     13 C          65.4007   92.3982   13.3624 C.ar    1  UNL1        0.1629
     14 C          64.2461   91.6377   12.7806 C.ar    1  UNL1        0.0319
     15 C          64.0531   91.5888   11.2939 C.ar    1  UNL1        0.0004
     16 C          65.0146   92.3003   10.3889 C.ar    1  UNL1        0.0061
     17 C          66.1693   93.0608   10.9707 C.ar    1  UNL1        0.1018
     18 C          66.3623   93.1097   12.4574 C.ar    1  UNL1        0.1774
     19 F          67.5170   93.8703   13.0392 F       1  UNL1       -0.2010
     20 C          67.1309   93.7724   10.0657 C.3     1  UNL1        0.4208
     21 F          68.0925   94.4840    9.1608 F       1  UNL1       -0.1658
     22 F          66.5601   95.0911   10.4961 F       1  UNL1       -0.1658
     23 F          67.7017   92.4537    9.6354 F       1  UNL1       -0.1658
     24 C          58.8041   88.9028    6.9512 C.3     1  UNL1        0.0521
     25 C          59.5946   87.7786    7.5523 C.ar    1  UNL1        0.0594
     26 C          60.1373   87.9041    8.9450 C.ar    1  UNL1        0.0160
     27 C          60.9279   86.7800    9.5460 C.ar    1  UNL1        0.0162
     28 C          61.4707   86.9056   10.9388 C.ar    1  UNL1        0.0516
     29 C          62.2612   85.7814   11.5398 C.ar    1  UNL1        0.0147
     30 C          62.5089   84.5316   10.7481 C.ar    1  UNL1        0.0013
     31 C          61.9661   84.4060    9.3555 C.ar    1  UNL1        0.0016
     32 C          61.1756   85.5302    8.7544 C.ar    1  UNL1        0.0204
     33 C          60.6328   85.4047    7.3617 C.ar    1  UNL1        0.0984
     34 N          59.8423   86.5289    6.7607 N.ar    1  UNL1       -0.2481
@<TRIPOS>BOND
     1    24    25    1
     2    25    26   ar
     3    26    27   ar
     4    27    28   ar
     5    28     1    1
     6     1     2   am
     7     2     3    2
     8     2     4   am
     9     7     4    1
    10     7     8    1
    11     8     9    1
    12     9    10    1
    13     9    11    1
    14     9    12    1
    15    12    13    1
    16    13    14   ar
    17    14    15   ar
    18    15    16   ar
    19    16    17   ar
    20    17    20    1
    21    20    21    1
    22    20    22    1
    23    20    23    1
    24    17    18   ar
    25    18    19    1
    26    28    29   ar
    27    29    30   ar
    28    30    31   ar
    29    31    32   ar
    30    32    33   ar
    31    33    34   ar
    32    34    25   ar
    33    32    27   ar
    34    14     7    1
    35    18    13   ar
    36     1     5    1
    37     4     6    1
@<TRIPOS>MOLECULE
*****
 34 37 0 0 0
SMALL
GASTEIGER

@<TRIPOS>ATOM
      1 N          63.0807   91.2210   12.2613 N.am    1  UNL1       -0.2683
      2 C          62.8814   89.9820   11.4395 C.2     1  UNL1        0.3047
      3 O          63.8871   89.6074   10.3915 O.2     1  UNL1       -0.2525
      4 N          61.6765   89.1177   11.6657 N.am    1  UNL1       -0.2863
      5 H          62.4207   91.4669   12.9491 H       1  UNL1        0.1564
      6 H          61.0165   89.3636   12.3535 H       1  UNL1        0.1512
      7 C          61.4773   87.8788   10.8439 C.3     1  UNL1        0.1020
      8 C          60.6657   87.9372    9.5838 C.3     1  UNL1        0.0642
      9 C          60.4664   86.6982    8.7620 C.3     1  UNL1        0.1353
     10 C          59.9980   85.8017    7.6544 C.3     1  UNL1        0.0437
     11 C          59.6914   87.6841    7.9390 C.3     1  UNL1        0.0437
     12 O          61.0788   85.4009    9.2003 O.3     1  UNL1       -0.4805
     13 C          61.8904   85.3426   10.4604 C.ar    1  UNL1        0.1629
     14 C          62.0897   86.5815   11.2822 C.ar    1  UNL1        0.0319
     15 C          62.9013   86.5232   12.5423 C.ar    1  UNL1        0.0004
     16 C          63.5137   85.2260   12.9806 C.ar    1  UNL1        0.0061
     17 C          63.3145   83.9871   12.1589 C.ar    1  UNL1        0.1018
     18 C          62.5028   84.0454   10.8988 C.ar    1  UNL1        0.1774
     19 F          62.3036   82.8064   10.0770 F       1  UNL1       -0.2010
     20 C          63.9269   82.6898   12.5972 C.3     1  UNL1        0.4208
     21 F          64.5392   81.3926   13.0355 F       1  UNL1       -0.1658
     22 F          64.8909   82.7572   11.4500 F       1  UNL1       -0.1658
     23 F          62.9628   82.6224   13.7443 F       1  UNL1       -0.1658
     24 C          65.3071   91.9945   17.1290 C.3     1  UNL1        0.0521
     25 C          65.6542   92.4493   15.7424 C.ar    1  UNL1        0.0594
     26 C          64.7964   92.0399   14.5821 C.ar    1  UNL1        0.0160
     27 C          65.1435   92.4947   13.1955 C.ar    1  UNL1        0.0162
     28 C          64.2856   92.0853   12.0351 C.ar    1  UNL1        0.0516
     29 C          64.6327   92.5401   10.6485 C.ar    1  UNL1        0.0147
     30 C          65.8377   93.4044   10.4223 C.ar    1  UNL1        0.0013
     31 C          66.6955   93.8138   11.5827 C.ar    1  UNL1        0.0016
     32 C          66.3484   93.3590   12.9693 C.ar    1  UNL1        0.0204
     33 C          67.2062   93.7684   14.1296 C.ar    1  UNL1        0.0984
     34 N          66.8591   93.3136   15.5162 N.ar    1  UNL1       -0.2481
@<TRIPOS>BOND
     1    24    25    1
     2    25    26   ar
     3    26    27   ar
     4    27    28   ar
     5    28     1    1
     6     1     2   am
     7     2     3    2
     8     2     4   am
     9     7     4    1
    10     7     8    1
    11     8     9    1
    12     9    10    1
    13     9    11    1
    14     9    12    1
    15    12    13    1
    16    13    14   ar
    17    14    15   ar
    18    15    16   ar
    19    16    17   ar
    20    17    20    1
    21    20    21    1
    22    20    22    1
    23    20    23    1
    24    17    18   ar
    25    18    19    1
    26    28    29   ar
    27    29    30   ar
    28    30    31   ar
    29    31    32   ar
    30    32    33   ar
    31    33    34   ar
    32    34    25   ar
    33    32    27   ar
    34    14     7    1
    35    18    13   ar
    36     1     5    1
    37     4     6    1
