@<TRIPOS>MOLECULE
*****
 30 32 0 0 0
SMALL
GASTEIGER

@<TRIPOS>ATOM
      1 C          62.8337   84.0453   15.1450 C.3     1  UNL1        0.0018
      2 C          63.7432   83.0339   14.5127 C.3     1  UNL1        0.0213
      3 C          64.1614   83.1928   13.0809 C.3     1  UNL1        0.0897
      4 O          64.4110   82.9407   10.1020 O.2     1  UNL1       -0.2701
      5 C          63.5443   84.0124   10.6940 C.2     1  UNL1        0.2460
      6 N          63.4195   84.1384   12.1834 N.am    1  UNL1       -0.3009
      7 H          62.8508   84.8418   12.5720 H       1  UNL1        0.1497
      8 C          62.8025   84.9581    9.7965 C.2     1  UNL1        0.0578
      9 C          61.6720   85.7789   10.3423 C.2     1  UNL1        0.0062
     10 C          60.9301   86.7246    9.4448 C.ar    1  UNL1        0.0193
     11 C          60.0965   86.1908    8.3179 C.ar    1  UNL1        0.0031
     12 C          59.3547   87.1364    7.4204 C.ar    1  UNL1        0.0207
     13 C          59.4466   88.6159    7.6499 C.ar    1  UNL1        0.0989
     14 N          60.2802   89.1497    8.7769 N.ar    1  UNL1       -0.2423
     15 C          61.0220   88.2041    9.6743 C.ar    1  UNL1        0.0988
     16 C          63.3304   84.8978   16.2748 C.3     1  UNL1        0.0002
     17 C          63.5107   86.3738   16.0775 C.3     1  UNL1        0.0034
     18 C          64.2780   86.8841   14.8939 C.3     1  UNL1        0.0216
     19 C          64.4583   88.3601   14.6965 C.3     1  UNL1        0.0937
     20 N          63.8714   89.3258   15.6829 N.am    1  UNL1       -0.2761
     21 C          64.0518   90.8018   15.4856 C.2     1  UNL1        0.2490
     22 O          63.4649   91.7676   16.4719 O.2     1  UNL1       -0.2699
     23 C          63.1042   88.8156   16.8666 C.3     1  UNL1        0.0937
     24 C          62.9239   87.3396   17.0638 C.3     1  UNL1        0.0216
     25 C          64.8190   91.3120   14.3020 C.ar    1  UNL1        0.0536
     26 C          64.1273   91.5005   12.9844 C.ar    1  UNL1        0.0045
     27 C          64.8946   92.0107   11.8007 C.ar    1  UNL1        0.0001
     28 C          66.3535   92.3325   11.9347 C.ar    1  UNL1        0.0000
     29 C          67.0452   92.1440   13.2523 C.ar    1  UNL1        0.0001
     30 C          66.2780   91.6338   14.4359 C.ar    1  UNL1        0.0045
@<TRIPOS>BOND
     1     4     5    2
     2     5     8    1
     3     8     9    2
     4     9    10    1
     5    10    11   ar
     6    11    12   ar
     7    12    13   ar
     8    13    14   ar
     9    14    15   ar
    10     5     6   am
    11     6     3    1
    12     3     2    1
    13     2     1    1
    14     1    16    1
    15    16    17    1
    16    17    18    1
    17    18    19    1
    18    19    20    1
    19    20    21   am
    20    21    22    2
    21    21    25    1
    22    25    26   ar
    23    26    27   ar
    24    27    28   ar
    25    28    29   ar
    26    29    30   ar
    27    20    23    1
    28    23    24    1
    29    15    10   ar
    30    24    17    1
    31    30    25   ar
    32     6     7    1
@<TRIPOS>MOLECULE
*****
 30 32 0 0 0
SMALL
GASTEIGER

@<TRIPOS>ATOM
      1 C          60.2138   89.2484    9.0603 C.3     1  UNL1        0.0018
      2 C          61.3852   89.7689    9.8392 C.3     1  UNL1        0.0213
      3 C          61.1809   90.3329   11.2141 C.3     1  UNL1        0.0897
      4 O          62.9453   88.3172   12.5646 O.2     1  UNL1       -0.2701
      5 C          63.2426   89.7816   12.6957 C.2     1  UNL1        0.2460
      6 N          62.3604   90.7894   12.0204 N.am    1  UNL1       -0.3009
      7 H          62.5556   91.7506   12.1065 H       1  UNL1        0.1497
      8 C          64.4222   90.2382   13.5021 C.2     1  UNL1        0.0578
      9 C          65.0667   91.5599   13.2061 C.2     1  UNL1        0.0062
     10 C          66.2463   92.0165   14.0125 C.ar    1  UNL1        0.0193
     11 C          66.0544   92.4797   15.4262 C.ar    1  UNL1        0.0031
     12 C          67.2339   92.9362   16.2325 C.ar    1  UNL1        0.0207
     13 C          68.6054   92.9295   15.6251 C.ar    1  UNL1        0.0989
     14 N          68.7974   92.4663   14.2114 N.ar    1  UNL1       -0.2423
     15 C          67.6178   92.0098   13.4051 C.ar    1  UNL1        0.0988
     16 C          60.2725   87.8841    8.4396 C.3     1  UNL1        0.0002
     17 C          61.1278   86.8164    9.0548 C.3     1  UNL1        0.0034
     18 C          60.9956   86.4979   10.5146 C.3     1  UNL1        0.0216
     19 C          61.8509   85.4301   11.1297 C.3     1  UNL1        0.0937
     20 N          62.8384   84.6809   10.2850 N.am    1  UNL1       -0.2761
     21 C          63.6937   83.6132   10.9001 C.2     1  UNL1        0.2490
     22 O          64.6812   82.8639   10.0554 O.2     1  UNL1       -0.2699
     23 C          62.9706   84.9994    8.8252 C.3     1  UNL1        0.0937
     24 C          62.1153   86.0671    8.2101 C.3     1  UNL1        0.0216
     25 C          63.5616   83.2947   12.3599 C.ar    1  UNL1        0.0536
     26 C          62.5753   82.2604   12.8156 C.ar    1  UNL1        0.0045
     27 C          62.4432   81.9419   14.2755 C.ar    1  UNL1        0.0001
     28 C          63.2972   82.6577   15.2796 C.ar    1  UNL1        0.0000
     29 C          64.2835   83.6919   14.8239 C.ar    1  UNL1        0.0001
     30 C          64.4156   84.0104   13.3641 C.ar    1  UNL1        0.0045
@<TRIPOS>BOND
     1     4     5    2
     2     5     8    1
     3     8     9    2
     4     9    10    1
     5    10    11   ar
     6    11    12   ar
     7    12    13   ar
     8    13    14   ar
     9    14    15   ar
    10     5     6   am
    11     6     3    1
    12     3     2    1
    13     2     1    1
    14     1    16    1
    15    16    17    1
    16    17    18    1
    17    18    19    1
    18    19    20    1
    19    20    21   am
    20    21    22    2
    21    21    25    1
    22    25    26   ar
    23    26    27   ar
    24    27    28   ar
    25    28    29   ar
    26    29    30   ar
    27    20    23    1
    28    23    24    1
    29    15    10   ar
    30    24    17    1
    31    30    25   ar
    32     6     7    1
@<TRIPOS>MOLECULE
*****
 30 32 0 0 0
SMALL
GASTEIGER

@<TRIPOS>ATOM
      1 C          63.6232   83.5594   15.2286 C.3     1  UNL1        0.0018
      2 C          64.4671   84.6895   15.7392 C.3     1  UNL1        0.0213
      3 C          63.8969   86.0747   15.8190 C.3     1  UNL1        0.0897
      4 O          63.0832   88.9384   16.1891 O.2     1  UNL1       -0.2701
      5 C          63.8612   88.5309   14.9731 C.2     1  UNL1        0.2460
      6 N          64.2680   87.0991   14.7880 N.am    1  UNL1       -0.3009
      7 H          64.7787   86.8316   13.9899 H       1  UNL1        0.1497
      8 C          64.2323   89.5553   13.9421 C.2     1  UNL1        0.0578
      9 C          64.9725   90.7948   14.3490 C.2     1  UNL1        0.0062
     10 C          65.3437   91.8193   13.3180 C.ar    1  UNL1        0.0193
     11 C          64.7259   91.7667   11.9521 C.ar    1  UNL1        0.0031
     12 C          65.0970   92.7911   10.9212 C.ar    1  UNL1        0.0207
     13 C          66.0859   93.8681   11.2562 C.ar    1  UNL1        0.0989
     14 N          66.7037   93.9207   12.6220 N.ar    1  UNL1       -0.2423
     15 C          66.3326   92.8963   13.6529 C.ar    1  UNL1        0.0988
     16 C          63.9878   82.8709   13.9468 C.3     1  UNL1        0.0002
     17 C          63.6184   83.4902   12.6314 C.3     1  UNL1        0.0034
     18 C          62.6689   84.6506   12.5891 C.3     1  UNL1        0.0216
     19 C          62.2995   85.2699   11.2737 C.3     1  UNL1        0.0937
     20 N          62.8796   84.7286   10.0007 N.am    1  UNL1       -0.2761
     21 C          62.5103   85.3478    8.6854 C.2     1  UNL1        0.2490
     22 O          63.0904   84.8065    7.4124 O.2     1  UNL1       -0.2699
     23 C          63.8291   83.5681   10.0431 C.3     1  UNL1        0.0937
     24 C          64.1985   82.9489   11.3584 C.3     1  UNL1        0.0216
     25 C          61.5608   86.5083    8.6430 C.ar    1  UNL1        0.0536
     26 C          60.2762   86.3987    7.8764 C.ar    1  UNL1        0.0045
     27 C          59.3267   87.5592    7.8341 C.ar    1  UNL1        0.0001
     28 C          59.6619   88.8293    8.5584 C.ar    1  UNL1        0.0000
     29 C          60.9465   88.9388    9.3250 C.ar    1  UNL1        0.0001
     30 C          61.8960   87.7784    9.3674 C.ar    1  UNL1        0.0045
@<TRIPOS>BOND
     1     4     5    2
     2     5     8    1
     3     8     9    2
     4     9    10    1
     5    10    11   ar
     6    11    12   ar
     7    12    13   ar
     8    13    14   ar
     9    14    15   ar
    10     5     6   am
    11     6     3    1
    12     3     2    1
    13     2     1    1
    14     1    16    1
    15    16    17    1
    16    17    18    1
    17    18    19    1
    18    19    20    1
    19    20    21   am
    20    21    22    2
    21    21    25    1
    22    25    26   ar
    23    26    27   ar
    24    27    28   ar
    25    28    29   ar
    26    29    30   ar
    27    20    23    1
    28    23    24    1
    29    15    10   ar
    30    24    17    1
    31    30    25   ar
    32     6     7    1
@<TRIPOS>MOLECULE
*****
 30 32 0 0 0
SMALL
GASTEIGER

@<TRIPOS>ATOM
      1 C          60.7753   89.5781   11.3822 C.3     1  UNL1        0.0018
      2 C          60.3322   89.5666    9.9492 C.3     1  UNL1        0.0213
      3 C          59.9762   88.2698    9.2845 C.3     1  UNL1        0.0897
      4 O          62.6833   87.0206    8.9519 O.2     1  UNL1       -0.2701
      5 C          61.6437   86.3443    9.7956 C.2     1  UNL1        0.2460
      6 N          60.2902   86.9689    9.9620 N.am    1  UNL1       -0.3009
      7 H          59.6079   86.5250   10.5157 H       1  UNL1        0.1497
      8 C          61.9578   85.0433   10.4730 C.2     1  UNL1        0.0578
      9 C          62.4233   85.0333   11.8989 C.2     1  UNL1        0.0062
     10 C          62.7374   83.7323   12.5763 C.ar    1  UNL1        0.0193
     11 C          62.6840   82.4503   11.7996 C.ar    1  UNL1        0.0031
     12 C          62.9980   81.1493   12.4770 C.ar    1  UNL1        0.0207
     13 C          63.3654   81.1305   13.9312 C.ar    1  UNL1        0.0989
     14 N          63.4188   82.4126   14.7080 N.ar    1  UNL1       -0.2423
     15 C          63.1048   83.7135   14.0305 C.ar    1  UNL1        0.0988
     16 C          62.1962   89.2471   11.7305 C.3     1  UNL1        0.0002
     17 C          63.2142   90.3425   11.8488 C.3     1  UNL1        0.0034
     18 C          63.5067   91.2249   10.6717 C.3     1  UNL1        0.0216
     19 C          64.5246   92.3203   10.7900 C.3     1  UNL1        0.0937
     20 N          65.2500   92.5332   12.0856 N.am    1  UNL1       -0.2761
     21 C          66.2679   93.6286   12.2040 C.2     1  UNL1        0.2490
     22 O          66.9933   93.8415   13.4996 O.2     1  UNL1       -0.2699
     23 C          64.9574   91.6508   13.2628 C.3     1  UNL1        0.0937
     24 C          63.9395   90.5554   13.1444 C.3     1  UNL1        0.0216
     25 C          66.5604   94.5110   11.0269 C.ar    1  UNL1        0.0536
     26 C          66.1176   95.9441   11.0354 C.ar    1  UNL1        0.0045
     27 C          66.4102   96.8265    9.8581 C.ar    1  UNL1        0.0001
     28 C          67.1455   96.2758    8.6724 C.ar    1  UNL1        0.0000
     29 C          67.5883   94.8427    8.6639 C.ar    1  UNL1        0.0001
     30 C          67.2958   93.9603    9.8411 C.ar    1  UNL1        0.0045
@<TRIPOS>BOND
     1     4     5    2
     2     5     8    1
     3     8     9    2
     4     9    10    1
     5    10    11   ar
     6    11    12   ar
     7    12    13   ar
     8    13    14   ar
     9    14    15   ar
    10     5     6   am
    11     6     3    1
    12     3     2    1
    13     2     1    1
    14     1    16    1
    15    16    17    1
    16    17    18    1
    17    18    19    1
    18    19    20    1
    19    20    21   am
    20    21    22    2
    21    21    25    1
    22    25    26   ar
    23    26    27   ar
    24    27    28   ar
    25    28    29   ar
    26    29    30   ar
    27    20    23    1
    28    23    24    1
    29    15    10   ar
    30    24    17    1
    31    30    25   ar
    32     6     7    1
@<TRIPOS>MOLECULE
*****
 30 32 0 0 0
SMALL
GASTEIGER

@<TRIPOS>ATOM
      1 C          60.1250   89.8455   10.0135 C.3     1  UNL1        0.0018
      2 C          60.3287   88.6534    9.1263 C.3     1  UNL1        0.0213
      3 C          61.5493   87.7968    9.2894 C.3     1  UNL1        0.0897
      4 O          62.9358   87.3566   11.9131 O.2     1  UNL1       -0.2701
      5 C          62.1399   86.2483   11.2902 C.2     1  UNL1        0.2460
      6 N          61.4466   86.4683    9.9784 N.am    1  UNL1       -0.3009
      7 H          60.9242   85.7409    9.5695 H       1  UNL1        0.1497
      8 C          62.0373   84.9198   11.9792 C.2     1  UNL1        0.0578
      9 C          62.7512   83.7263   11.4171 C.2     1  UNL1        0.0062
     10 C          62.6485   82.3978   12.1061 C.ar    1  UNL1        0.0193
     11 C          62.3085   82.3342   13.5656 C.ar    1  UNL1        0.0031
     12 C          62.2059   81.0057   14.2545 C.ar    1  UNL1        0.0207
     13 C          62.4433   79.7409   13.4839 C.ar    1  UNL1        0.0989
     14 N          62.7834   79.8045   12.0244 N.ar    1  UNL1       -0.2423
     15 C          62.8860   81.1330   11.3355 C.ar    1  UNL1        0.0988
     16 C          60.7411   89.8769   11.3807 C.3     1  UNL1        0.0002
     17 C          62.0783   90.5249   11.5861 C.3     1  UNL1        0.0034
     18 C          62.7932   91.1533   10.4268 C.3     1  UNL1        0.0216
     19 C          64.1304   91.8013   10.6322 C.3     1  UNL1        0.0937
     20 N          64.7526   91.8209   11.9970 N.am    1  UNL1       -0.2761
     21 C          66.0897   92.4688   12.2024 C.2     1  UNL1        0.2490
     22 O          66.7119   92.4884   13.5671 O.2     1  UNL1       -0.2699
     23 C          64.0376   91.1924   13.1563 C.3     1  UNL1        0.0937
     24 C          62.7005   90.5444   12.9508 C.3     1  UNL1        0.0216
     25 C          66.8046   93.0973   11.0431 C.ar    1  UNL1        0.0536
     26 C          67.7443   92.2786   10.2084 C.ar    1  UNL1        0.0045
     27 C          68.4591   92.9072    9.0490 C.ar    1  UNL1        0.0001
     28 C          68.2343   94.3543    8.7245 C.ar    1  UNL1        0.0000
     29 C          67.2946   95.1729    9.5593 C.ar    1  UNL1        0.0001
     30 C          66.5797   94.5444   10.7185 C.ar    1  UNL1        0.0045
@<TRIPOS>BOND
     1     4     5    2
     2     5     8    1
     3     8     9    2
     4     9    10    1
     5    10    11   ar
     6    11    12   ar
     7    12    13   ar
     8    13    14   ar
     9    14    15   ar
    10     5     6   am
    11     6     3    1
    12     3     2    1
    13     2     1    1
    14     1    16    1
    15    16    17    1
    16    17    18    1
    17    18    19    1
    18    19    20    1
    19    20    21   am
    20    21    22    2
    21    21    25    1
    22    25    26   ar
    23    26    27   ar
    24    27    28   ar
    25    28    29   ar
    26    29    30   ar
    27    20    23    1
    28    23    24    1
    29    15    10   ar
    30    24    17    1
    31    30    25   ar
    32     6     7    1
@<TRIPOS>MOLECULE
*****
 30 32 0 0 0
SMALL
GASTEIGER

@<TRIPOS>ATOM
      1 C          59.9629   89.7052    9.5377 C.3     1  UNL1        0.0018
      2 C          60.0896   88.9157    8.2686 C.3     1  UNL1        0.0213
      3 C          59.2428   89.2647    7.0806 C.3     1  UNL1        0.0897
      4 O          57.3044   90.9857    5.5705 O.2     1  UNL1       -0.2701
      5 C          58.7764   91.1063    5.3084 C.2     1  UNL1        0.2460
      6 N          59.7456   90.2459    6.0635 N.am    1  UNL1       -0.3009
      7 H          60.7117   90.3250    5.8915 H       1  UNL1        0.1497
      8 C          59.2791   92.0875    4.2912 C.2     1  UNL1        0.0578
      9 C          60.6537   91.9294    3.7121 C.2     1  UNL1        0.0062
     10 C          61.1564   92.9106    2.6949 C.ar    1  UNL1        0.0193
     11 C          60.2703   94.0270    2.2278 C.ar    1  UNL1        0.0031
     12 C          60.7731   95.0081    1.2107 C.ar    1  UNL1        0.0207
     13 C          62.1620   94.8728    0.6606 C.ar    1  UNL1        0.0989
     14 N          63.0481   93.7563    1.1277 N.ar    1  UNL1       -0.2423
     15 C          62.5454   92.7752    2.1448 C.ar    1  UNL1        0.0988
     16 C          60.7570   89.3119   10.7480 C.3     1  UNL1        0.0002
     17 C          61.9976   90.0730   11.1109 C.3     1  UNL1        0.0034
     18 C          62.6941   90.9085   10.0780 C.3     1  UNL1        0.0216
     19 C          63.9347   91.6696   10.4409 C.3     1  UNL1        0.0937
     20 N          64.4788   91.5952   11.8367 N.am    1  UNL1       -0.2761
     21 C          65.7193   92.3563   12.1997 C.2     1  UNL1        0.2490
     22 O          66.2635   92.2819   13.5955 O.2     1  UNL1       -0.2699
     23 C          63.7823   90.7597   12.8697 C.3     1  UNL1        0.0937
     24 C          62.5418   89.9986   12.5067 C.3     1  UNL1        0.0216
     25 C          66.4157   93.1918   11.1668 C.ar    1  UNL1        0.0536
     26 C          67.4396   92.5693   10.2644 C.ar    1  UNL1        0.0045
     27 C          68.1360   93.4048    9.2314 C.ar    1  UNL1        0.0001
     28 C          67.8086   94.8628    9.1009 C.ar    1  UNL1        0.0000
     29 C          66.7848   95.4853   10.0033 C.ar    1  UNL1        0.0001
     30 C          66.0884   94.6498   11.0362 C.ar    1  UNL1        0.0045
@<TRIPOS>BOND
     1     4     5    2
     2     5     8    1
     3     8     9    2
     4     9    10    1
     5    10    11   ar
     6    11    12   ar
     7    12    13   ar
     8    13    14   ar
     9    14    15   ar
    10     5     6   am
    11     6     3    1
    12     3     2    1
    13     2     1    1
    14     1    16    1
    15    16    17    1
    16    17    18    1
    17    18    19    1
    18    19    20    1
    19    20    21   am
    20    21    22    2
    21    21    25    1
    22    25    26   ar
    23    26    27   ar
    24    27    28   ar
    25    28    29   ar
    26    29    30   ar
    27    20    23    1
    28    23    24    1
    29    15    10   ar
    30    24    17    1
    31    30    25   ar
    32     6     7    1
@<TRIPOS>MOLECULE
*****
 30 32 0 0 0
SMALL
GASTEIGER

@<TRIPOS>ATOM
      1 C          65.9641   92.4808   12.3809 C.3     1  UNL1        0.0018
      2 C          66.1586   93.3341   13.5991 C.3     1  UNL1        0.0213
      3 C          66.0075   92.7354   14.9662 C.3     1  UNL1        0.0897
      4 O          63.5734   92.4184   16.6908 O.2     1  UNL1       -0.2701
      5 C          64.1565   91.2271   15.9902 C.2     1  UNL1        0.2460
      6 N          65.3735   91.3856   15.1279 N.am    1  UNL1       -0.3009
      7 H          65.7563   90.6037   14.6680 H       1  UNL1        0.1497
      8 C          63.5225   89.8773   16.1519 C.2     1  UNL1        0.0578
      9 C          64.2731   88.6429   15.7483 C.2     1  UNL1        0.0062
     10 C          63.6391   87.2931   15.9101 C.ar    1  UNL1        0.0193
     11 C          63.9916   86.1811   14.9672 C.ar    1  UNL1        0.0031
     12 C          63.3576   84.8313   15.1289 C.ar    1  UNL1        0.0207
     13 C          62.3711   84.5936   16.2336 C.ar    1  UNL1        0.0989
     14 N          62.0186   85.7056   17.1765 N.ar    1  UNL1       -0.2423
     15 C          62.6526   87.0553   17.0148 C.ar    1  UNL1        0.0988
     16 C          64.6281   92.4384   11.7005 C.3     1  UNL1        0.0002
     17 C          63.9177   91.1291   11.5235 C.3     1  UNL1        0.0034
     18 C          63.1618   90.8510   10.2582 C.3     1  UNL1        0.0216
     19 C          62.4514   89.5417   10.0812 C.3     1  UNL1        0.0937
     20 N          62.4971   88.5106   11.1697 N.am    1  UNL1       -0.2761
     21 C          61.7867   87.2014   10.9928 C.2     1  UNL1        0.2490
     22 O          61.8324   86.1703   12.0813 O.2     1  UNL1       -0.2699
     23 C          63.2530   88.7888   12.4351 C.3     1  UNL1        0.0937
     24 C          63.9634   90.0980   12.6120 C.3     1  UNL1        0.0216
     25 C          61.0308   86.9233    9.7274 C.ar    1  UNL1        0.0536
     26 C          59.7020   87.5768    9.4886 C.ar    1  UNL1        0.0045
     27 C          58.9461   87.2987    8.2231 C.ar    1  UNL1        0.0001
     28 C          59.5189   86.3670    7.1967 C.ar    1  UNL1        0.0000
     29 C          60.8478   85.7134    7.4355 C.ar    1  UNL1        0.0001
     30 C          61.6037   85.9915    8.7009 C.ar    1  UNL1        0.0045
@<TRIPOS>BOND
     1     4     5    2
     2     5     8    1
     3     8     9    2
     4     9    10    1
     5    10    11   ar
     6    11    12   ar
     7    12    13   ar
     8    13    14   ar
     9    14    15   ar
    10     5     6   am
    11     6     3    1
    12     3     2    1
    13     2     1    1
    14     1    16    1
    15    16    17    1
    16    17    18    1
    17    18    19    1
    18    19    20    1
    19    20    21   am
    20    21    22    2
    21    21    25    1
    22    25    26   ar
    23    26    27   ar
    24    27    28   ar
    25    28    29   ar
    26    29    30   ar
    27    20    23    1
    28    23    24    1
    29    15    10   ar
    30    24    17    1
    31    30    25   ar
    32     6     7    1
@<TRIPOS>MOLECULE
*****
 30 32 0 0 0
SMALL
GASTEIGER

@<TRIPOS>ATOM
      1 C          60.5520   89.9395    9.6760 C.3     1  UNL1        0.0018
      2 C          60.8098   88.5929    9.0677 C.3     1  UNL1        0.0213
      3 C          62.0265   87.8107    9.4654 C.3     1  UNL1        0.0897
      4 O          63.1217   87.4093   12.2292 O.2     1  UNL1       -0.2701
      5 C          62.4226   86.2823   11.5285 C.2     1  UNL1        0.2460
      6 N          61.8750   86.4830   10.1466 N.am    1  UNL1       -0.3009
      7 H          61.4162   85.7433    9.6866 H       1  UNL1        0.1497
      8 C          62.2711   84.9544   12.2098 C.2     1  UNL1        0.0578
      9 C          62.7447   83.7042   11.5297 C.2     1  UNL1        0.0062
     10 C          62.5933   82.3764   12.2109 C.ar    1  UNL1        0.0193
     11 C          62.1528   82.3143   13.6434 C.ar    1  UNL1        0.0031
     12 C          62.0013   80.9866   14.3246 C.ar    1  UNL1        0.0207
     13 C          62.2904   79.7209   13.5733 C.ar    1  UNL1        0.0989
     14 N          62.7308   79.7829   12.1408 N.ar    1  UNL1       -0.2423
     15 C          62.8823   81.1107   11.4596 C.ar    1  UNL1        0.0988
     16 C          61.0039   90.2286   11.0768 C.3     1  UNL1        0.0002
     17 C          62.3460   90.8538   11.3179 C.3     1  UNL1        0.0034
     18 C          62.9653   90.7973   12.6829 C.3     1  UNL1        0.0216
     19 C          64.3074   91.4225   12.9240 C.3     1  UNL1        0.0937
     20 N          65.0301   92.1041   11.8001 N.am    1  UNL1       -0.2761
     21 C          66.3721   92.7292   12.0411 C.2     1  UNL1        0.2490
     22 O          67.0948   93.4108   10.9172 O.2     1  UNL1       -0.2699
     23 C          64.4107   92.1605   10.4350 C.3     1  UNL1        0.0937
     24 C          63.0687   91.5354   10.1940 C.3     1  UNL1        0.0216
     25 C          66.9915   92.6728   13.4061 C.ar    1  UNL1        0.0536
     26 C          66.8973   93.8570   14.3220 C.ar    1  UNL1        0.0045
     27 C          67.5167   93.8005   15.6870 C.ar    1  UNL1        0.0001
     28 C          68.2302   92.5598   16.1361 C.ar    1  UNL1        0.0000
     29 C          68.3243   91.3756   15.2202 C.ar    1  UNL1        0.0001
     30 C          67.7050   91.4321   13.8552 C.ar    1  UNL1        0.0045
@<TRIPOS>BOND
     1     4     5    2
     2     5     8    1
     3     8     9    2
     4     9    10    1
     5    10    11   ar
     6    11    12   ar
     7    12    13   ar
     8    13    14   ar
     9    14    15   ar
    10     5     6   am
    11     6     3    1
    12     3     2    1
    13     2     1    1
    14     1    16    1
    15    16    17    1
    16    17    18    1
    17    18    19    1
    18    19    20    1
    19    20    21   am
    20    21    22    2
    21    21    25    1
    22    25    26   ar
    23    26    27   ar
    24    27    28   ar
    25    28    29   ar
    26    29    30   ar
    27    20    23    1
    28    23    24    1
    29    15    10   ar
    30    24    17    1
    31    30    25   ar
    32     6     7    1
@<TRIPOS>MOLECULE
*****
 30 32 0 0 0
SMALL
GASTEIGER

@<TRIPOS>ATOM
      1 C          60.3773   90.6484   10.4748 C.3     1  UNL1        0.0018
      2 C          59.4467   90.3475   11.6121 C.3     1  UNL1        0.0213
      3 C          58.9170   88.9568   11.7999 C.3     1  UNL1        0.0897
      4 O          59.6690   87.5832    9.2411 O.2     1  UNL1       -0.2701
      5 C          60.2371   87.1046   10.5443 C.2     1  UNL1        0.2460
      6 N          59.8611   87.7914   11.8236 N.am    1  UNL1       -0.3009
      7 H          60.2340   87.4774   12.6790 H       1  UNL1        0.1497
      8 C          61.1812   85.9392   10.5680 C.2     1  UNL1        0.0578
      9 C          61.9866   85.6514   11.8003 C.2     1  UNL1        0.0062
     10 C          62.9307   84.4860   11.8240 C.ar    1  UNL1        0.0193
     11 C          63.4463   83.9122   10.5376 C.ar    1  UNL1        0.0031
     12 C          64.3904   82.7468   10.5614 C.ar    1  UNL1        0.0207
     13 C          64.8189   82.1553   11.8716 C.ar    1  UNL1        0.0989
     14 N          64.3033   82.7292   13.1580 N.ar    1  UNL1       -0.2423
     15 C          63.3592   83.8945   13.1342 C.ar    1  UNL1        0.0988
     16 C          61.7375   90.0176   10.4318 C.3     1  UNL1        0.0002
     17 C          62.9352   90.7840   10.9097 C.3     1  UNL1        0.0034
     18 C          63.5003   90.5186   12.2736 C.3     1  UNL1        0.0216
     19 C          64.6979   91.2850   12.7514 C.3     1  UNL1        0.0937
     20 N          65.3304   92.3169   11.8654 N.am    1  UNL1       -0.2761
     21 C          66.5280   93.0833   12.3432 C.2     1  UNL1        0.2490
     22 O          67.1606   94.1152   11.4571 O.2     1  UNL1       -0.2699
     23 C          64.7653   92.5824   10.5014 C.3     1  UNL1        0.0937
     24 C          63.5677   91.8159   10.0236 C.3     1  UNL1        0.0216
     25 C          67.0931   92.8178   13.7070 C.ar    1  UNL1        0.0536
     26 C          68.4806   92.2660   13.8496 C.ar    1  UNL1        0.0045
     27 C          69.0456   92.0005   15.2136 C.ar    1  UNL1        0.0001
     28 C          68.2232   92.2869   16.4349 C.ar    1  UNL1        0.0000
     29 C          66.8357   92.8388   16.2923 C.ar    1  UNL1        0.0001
     30 C          66.2706   93.1042   14.9284 C.ar    1  UNL1        0.0045
@<TRIPOS>BOND
     1     4     5    2
     2     5     8    1
     3     8     9    2
     4     9    10    1
     5    10    11   ar
     6    11    12   ar
     7    12    13   ar
     8    13    14   ar
     9    14    15   ar
    10     5     6   am
    11     6     3    1
    12     3     2    1
    13     2     1    1
    14     1    16    1
    15    16    17    1
    16    17    18    1
    17    18    19    1
    18    19    20    1
    19    20    21   am
    20    21    22    2
    21    21    25    1
    22    25    26   ar
    23    26    27   ar
    24    27    28   ar
    25    28    29   ar
    26    29    30   ar
    27    20    23    1
    28    23    24    1
    29    15    10   ar
    30    24    17    1
    31    30    25   ar
    32     6     7    1
