@<TRIPOS>MOLECULE
*****
 33 35 0 0 0
SMALL
GASTEIGER

@<TRIPOS>ATOM
      1 C          64.9178   90.7269   14.6884 C.ar    1  UNL1        0.0530
      2 C          64.7882   89.2782   14.3220 C.ar    1  UNL1        0.0167
      3 C          63.9573   88.3616   15.1702 C.ar    1  UNL1        0.0505
      4 C          63.2560   88.8937   16.3847 C.ar    1  UNL1        0.0170
      5 C          63.3857   90.3425   16.7511 C.ar    1  UNL1        0.0307
      6 C          64.2166   91.2591   15.9029 C.ar    1  UNL1        0.1402
      7 F          64.3463   92.7079   16.2693 F       1  UNL1       -0.2044
      8 C          66.5683   91.6369   15.0966 C.3     1  UNL1        0.0610
      9 C          65.7488   91.6436   13.8402 C.3     1  UNL1        0.2282
     10 N          64.6407   91.3320   12.8785 N.2     1  UNL1       -0.0690
     11 C          64.6481   91.9347   11.5049 C.2     1  UNL1        0.3194
     12 N          63.5400   91.6230   10.5431 N.pl3   1  UNL1       -0.2480
     13 C          65.7637   92.8490   11.0931 C.3     1  UNL1        0.2593
     14 O          66.8718   93.1606   12.0548 O.3     1  UNL1       -0.3325
     15 C          66.8644   92.5579   13.4284 C.3     1  UNL1        0.2596
     16 H          62.8078   91.0229   10.8134 H       1  UNL1        0.2882
     17 H          63.5449   92.0186    9.6416 H       1  UNL1        0.2882
     18 C          67.9724   92.8695   14.3902 C.3     1  UNL1        0.4266
     19 F          69.0805   93.1810   15.3520 F       1  UNL1       -0.1673
     20 F          68.8190   91.8036   13.7600 F       1  UNL1       -0.1673
     21 F          67.1258   93.9354   15.0204 F       1  UNL1       -0.1673
     22 N          63.8276   86.9128   14.8038 N.am    1  UNL1       -0.2791
     23 C          63.4021   86.5246   13.4188 C.2     1  UNL1        0.2672
     24 O          63.1063   87.5853   12.4001 O.2     1  UNL1       -0.2682
     25 H          64.0217   86.2167   15.4724 H       1  UNL1        0.1552
     26 C          63.2724   85.0759   13.0524 C.ar    1  UNL1        0.1348
     27 C          62.8749   84.6872   11.6592 C.ar    1  UNL1        0.0245
     28 C          62.7452   83.2384   11.2928 C.ar    1  UNL1        0.0135
     29 C          63.0129   82.1783   12.3197 C.ar    1  UNL1        0.0876
     30 C          63.4104   82.5669   13.7129 C.ar    1  UNL1        0.1092
     31 N          63.5401   84.0156   14.0792 N.ar    1  UNL1       -0.2385
     32 C          62.8832   80.7295   11.9533 C.1     1  UNL1        0.1020
     33 N          62.7535   79.2807   11.5868 N.1     1  UNL1       -0.1908
@<TRIPOS>BOND
     1     9     8    1
     2     9     1    1
     3     1     2   ar
     4     2     3   ar
     5     3    22    1
     6    22    23   am
     7    23    24    2
     8    23    26    1
     9    26    27   ar
    10    27    28   ar
    11    28    29   ar
    12    29    32    1
    13    32    33    3
    14    29    30   ar
    15    30    31   ar
    16     3     4   ar
    17     4     5   ar
    18     5     6   ar
    19     6     7    1
    20     9    10    1
    21    10    11    2
    22    11    12    1
    23    11    13    1
    24    13    14    1
    25    14    15    1
    26    15    18    1
    27    18    19    1
    28    18    20    1
    29    18    21    1
    30    15     9    1
    31     6     1   ar
    32    31    26   ar
    33    22    25    1
    34    12    16    1
    35    12    17    1
@<TRIPOS>MOLECULE
*****
 33 35 0 0 0
SMALL
GASTEIGER

@<TRIPOS>ATOM
      1 C          61.7423   87.7937   10.7929 C.ar    1  UNL1        0.0530
      2 C          62.8037   88.6749   11.3818 C.ar    1  UNL1        0.0167
      3 C          62.4764   90.0863   11.7699 C.ar    1  UNL1        0.0505
      4 C          61.0878   90.6166   11.5689 C.ar    1  UNL1        0.0170
      5 C          60.0264   89.7355   10.9800 C.ar    1  UNL1        0.0307
      6 C          60.3536   88.3240   10.5919 C.ar    1  UNL1        0.1402
      7 F          59.2922   87.4428   10.0029 F       1  UNL1       -0.2044
      8 C          61.8277   86.9758    9.0486 C.3     1  UNL1        0.0610
      9 C          62.0695   86.3822   10.4048 C.3     1  UNL1        0.2282
     10 N          62.1977   86.2788   11.8957 N.2     1  UNL1       -0.0690
     11 C          62.5691   84.9701   12.5276 C.2     1  UNL1        0.3194
     12 N          62.6973   84.8667   14.0186 N.pl3   1  UNL1       -0.2480
     13 C          62.8124   83.7647   11.6685 C.3     1  UNL1        0.2593
     14 O          62.6842   83.8681   10.1776 O.3     1  UNL1       -0.3325
     15 C          62.3128   85.1768    9.5457 C.3     1  UNL1        0.2596
     16 H          62.5377   85.6578   14.5824 H       1  UNL1        0.2882
     17 H          62.9411   84.0077   14.4333 H       1  UNL1        0.2882
     18 C          62.1846   85.2803    8.0548 C.3     1  UNL1        0.4266
     19 F          62.0563   85.3837    6.5639 F       1  UNL1       -0.1673
     20 F          60.6910   85.2184    8.1791 F       1  UNL1       -0.1673
     21 F          63.6781   85.3422    7.9306 F       1  UNL1       -0.1673
     22 N          63.5379   90.9676   12.3589 N.am    1  UNL1       -0.2791
     23 C          64.3302   90.4984   13.5430 C.2     1  UNL1        0.2672
     24 O          64.0610   89.1480   14.1381 O.2     1  UNL1       -0.2682
     25 H          63.7145   91.8539   11.9683 H       1  UNL1        0.1552
     26 C          65.3915   91.3796   14.1320 C.ar    1  UNL1        0.1348
     27 C          66.5897   91.7602   13.3137 C.ar    1  UNL1        0.0245
     28 C          67.6511   92.6414   13.9028 C.ar    1  UNL1        0.0135
     29 C          67.5143   93.1420   15.3101 C.ar    1  UNL1        0.0876
     30 C          66.3162   92.7614   16.1285 C.ar    1  UNL1        0.1092
     31 N          65.2548   91.8802   15.5395 N.ar    1  UNL1       -0.2385
     32 C          68.5757   94.0231   15.8991 C.1     1  UNL1        0.1020
     33 N          69.6371   94.9043   16.4882 N.1     1  UNL1       -0.1908
@<TRIPOS>BOND
     1     9     8    1
     2     9     1    1
     3     1     2   ar
     4     2     3   ar
     5     3    22    1
     6    22    23   am
     7    23    24    2
     8    23    26    1
     9    26    27   ar
    10    27    28   ar
    11    28    29   ar
    12    29    32    1
    13    32    33    3
    14    29    30   ar
    15    30    31   ar
    16     3     4   ar
    17     4     5   ar
    18     5     6   ar
    19     6     7    1
    20     9    10    1
    21    10    11    2
    22    11    12    1
    23    11    13    1
    24    13    14    1
    25    14    15    1
    26    15    18    1
    27    18    19    1
    28    18    20    1
    29    18    21    1
    30    15     9    1
    31     6     1   ar
    32    31    26   ar
    33    22    25    1
    34    12    16    1
    35    12    17    1
@<TRIPOS>MOLECULE
*****
 33 35 0 0 0
SMALL
GASTEIGER

@<TRIPOS>ATOM
      1 C          64.2532   89.9428   14.5243 C.ar    1  UNL1        0.0530
      2 C          64.2419   88.5658   13.9296 C.ar    1  UNL1        0.0167
      3 C          63.7522   87.4028   14.7404 C.ar    1  UNL1        0.0505
      4 C          63.2738   87.6167   16.1459 C.ar    1  UNL1        0.0170
      5 C          63.2851   88.9937   16.7406 C.ar    1  UNL1        0.0307
      6 C          63.7748   90.1568   15.9298 C.ar    1  UNL1        0.1402
      7 F          63.7861   91.5339   16.5245 F       1  UNL1       -0.2044
      8 C          63.8473   90.4459   12.7075 C.3     1  UNL1        0.0610
      9 C          64.7430   91.1060   13.7136 C.3     1  UNL1        0.2282
     10 N          65.4685   91.3621   15.0011 N.2     1  UNL1       -0.0690
     11 C          66.3728   92.5521   15.1286 C.2     1  UNL1        0.3194
     12 N          67.0984   92.8082   16.4162 N.pl3   1  UNL1       -0.2480
     13 C          66.5514   93.4860   13.9684 C.3     1  UNL1        0.2593
     14 O          65.8259   93.2299   12.6808 O.3     1  UNL1       -0.3325
     15 C          64.9216   92.0399   12.5534 C.3     1  UNL1        0.2596
     16 H          66.9811   92.1952   17.1777 H       1  UNL1        0.2882
     17 H          67.6919   93.5892   16.4999 H       1  UNL1        0.2882
     18 C          64.1960   91.7837   11.2658 C.3     1  UNL1        0.4266
     19 F          63.4705   91.5275    9.9782 F       1  UNL1       -0.1673
     20 F          65.5065   91.7313   10.5378 F       1  UNL1       -0.1673
     21 F          62.8856   91.8361   11.9938 F       1  UNL1       -0.1673
     22 N          63.7409   86.0257   14.1457 N.am    1  UNL1       -0.2791
     23 C          63.1551   85.8020   12.7831 C.2     1  UNL1        0.2672
     24 O          62.5806   86.9554   12.0151 O.2     1  UNL1       -0.2682
     25 H          64.1180   85.2687   14.6498 H       1  UNL1        0.1552
     26 C          63.1437   84.4250   12.1884 C.ar    1  UNL1        0.1348
     27 C          63.6856   84.1997   10.8080 C.ar    1  UNL1        0.0245
     28 C          63.6743   82.8226   10.2133 C.ar    1  UNL1        0.0135
     29 C          63.1210   81.6709   10.9990 C.ar    1  UNL1        0.0876
     30 C          62.5792   81.8962   12.3795 C.ar    1  UNL1        0.1092
     31 N          62.5905   83.2732   12.9742 N.ar    1  UNL1       -0.2385
     32 C          63.1097   80.2939   10.4043 C.1     1  UNL1        0.1020
     33 N          63.0984   78.9168    9.8096 N.1     1  UNL1       -0.1908
@<TRIPOS>BOND
     1     9     8    1
     2     9     1    1
     3     1     2   ar
     4     2     3   ar
     5     3    22    1
     6    22    23   am
     7    23    24    2
     8    23    26    1
     9    26    27   ar
    10    27    28   ar
    11    28    29   ar
    12    29    32    1
    13    32    33    3
    14    29    30   ar
    15    30    31   ar
    16     3     4   ar
    17     4     5   ar
    18     5     6   ar
    19     6     7    1
    20     9    10    1
    21    10    11    2
    22    11    12    1
    23    11    13    1
    24    13    14    1
    25    14    15    1
    26    15    18    1
    27    18    19    1
    28    18    20    1
    29    18    21    1
    30    15     9    1
    31     6     1   ar
    32    31    26   ar
    33    22    25    1
    34    12    16    1
    35    12    17    1
@<TRIPOS>MOLECULE
*****
 33 35 0 0 0
SMALL
GASTEIGER

@<TRIPOS>ATOM
      1 C          63.3920   85.2946   14.3068 C.ar    1  UNL1        0.0530
      2 C          63.9668   86.5947   13.8282 C.ar    1  UNL1        0.0167
      3 C          64.1563   87.7302   14.7897 C.ar    1  UNL1        0.0505
      4 C          63.7710   87.5656   16.2300 C.ar    1  UNL1        0.0170
      5 C          63.1961   86.2655   16.7087 C.ar    1  UNL1        0.0307
      6 C          63.0066   85.1300   15.7471 C.ar    1  UNL1        0.1402
      7 F          62.4317   83.8298   16.2258 F       1  UNL1       -0.2044
      8 C          63.7430   83.4114   14.5280 C.3     1  UNL1        0.0610
      9 C          63.2024   84.1590   13.3452 C.3     1  UNL1        0.2282
     10 N          62.7277   85.3010   12.4965 N.2     1  UNL1       -0.0690
     11 C          62.2512   85.0478   11.0969 C.2     1  UNL1        0.3194
     12 N          61.7765   86.1899   10.2481 N.pl3   1  UNL1       -0.2480
     13 C          62.2495   83.6526   10.5461 C.3     1  UNL1        0.2593
     14 O          62.7242   82.5106   11.3949 O.3     1  UNL1       -0.3325
     15 C          63.2007   82.7638   12.7944 C.3     1  UNL1        0.2596
     16 H          61.7777   87.1056   10.6097 H       1  UNL1        0.2882
     17 H          61.4638   86.0238    9.3295 H       1  UNL1        0.2882
     18 C          63.6754   81.6218   13.6433 C.3     1  UNL1        0.4266
     19 F          64.1502   80.4799   14.4921 F       1  UNL1       -0.1673
     20 F          65.0159   81.6808   12.9727 F       1  UNL1       -0.1673
     21 F          62.3350   81.5629   14.3138 F       1  UNL1       -0.1673
     22 N          64.7312   89.0304   14.3111 N.am    1  UNL1       -0.2791
     23 C          64.0018   89.8381   13.2788 C.2     1  UNL1        0.2672
     24 O          62.6975   89.3457   12.7252 O.2     1  UNL1       -0.2682
     25 H          65.5872   89.3536   14.6744 H       1  UNL1        0.1552
     26 C          64.5766   91.1383   12.8001 C.ar    1  UNL1        0.1348
     27 C          64.3216   91.5993   11.3957 C.ar    1  UNL1        0.0245
     28 C          64.8965   92.8995   10.9170 C.ar    1  UNL1        0.0135
     29 C          65.7263   93.7386   11.8428 C.ar    1  UNL1        0.0876
     30 C          65.9814   93.2777   13.2472 C.ar    1  UNL1        0.1092
     31 N          65.4065   91.9775   13.7259 N.ar    1  UNL1       -0.2385
     32 C          66.3011   95.0388   11.3641 C.1     1  UNL1        0.1020
     33 N          66.8760   96.3390   10.8854 N.1     1  UNL1       -0.1908
@<TRIPOS>BOND
     1     9     8    1
     2     9     1    1
     3     1     2   ar
     4     2     3   ar
     5     3    22    1
     6    22    23   am
     7    23    24    2
     8    23    26    1
     9    26    27   ar
    10    27    28   ar
    11    28    29   ar
    12    29    32    1
    13    32    33    3
    14    29    30   ar
    15    30    31   ar
    16     3     4   ar
    17     4     5   ar
    18     5     6   ar
    19     6     7    1
    20     9    10    1
    21    10    11    2
    22    11    12    1
    23    11    13    1
    24    13    14    1
    25    14    15    1
    26    15    18    1
    27    18    19    1
    28    18    20    1
    29    18    21    1
    30    15     9    1
    31     6     1   ar
    32    31    26   ar
    33    22    25    1
    34    12    16    1
    35    12    17    1
@<TRIPOS>MOLECULE
*****
 33 35 0 0 0
SMALL
GASTEIGER

@<TRIPOS>ATOM
      1 C          62.6256   86.1542   12.0868 C.ar    1  UNL1        0.0530
      2 C          63.5311   87.2441   12.5786 C.ar    1  UNL1        0.0167
      3 C          63.3103   88.6599   12.1350 C.ar    1  UNL1        0.0505
      4 C          62.1839   88.9856   11.1995 C.ar    1  UNL1        0.0170
      5 C          61.2783   87.8957   10.7077 C.ar    1  UNL1        0.0307
      6 C          61.4992   86.4800   11.1513 C.ar    1  UNL1        0.1402
      7 F          60.5936   85.3899   10.6595 F       1  UNL1       -0.2044
      8 C          63.1104   84.5950   11.0608 C.3     1  UNL1        0.0610
      9 C          62.8464   84.7383   12.5304 C.3     1  UNL1        0.2282
     10 N          62.5056   85.3734   13.8459 N.2     1  UNL1       -0.0690
     11 C          62.4774   84.5428   15.0947 C.2     1  UNL1        0.3194
     12 N          62.1367   85.1779   16.4103 N.pl3   1  UNL1       -0.2480
     13 C          62.7899   83.0772   15.0279 C.3     1  UNL1        0.2593
     14 O          63.1307   82.4422   13.7124 O.3     1  UNL1       -0.3325
     15 C          63.1589   83.2727   12.4637 C.3     1  UNL1        0.2596
     16 H          61.9315   86.1398   16.4541 H       1  UNL1        0.2882
     17 H          62.1181   84.6328   17.2299 H       1  UNL1        0.2882
     18 C          63.4996   82.6378   11.1481 C.3     1  UNL1        0.4266
     19 F          63.8404   82.0029    9.8326 F       1  UNL1       -0.1673
     20 F          64.8643   83.2582   11.2023 F       1  UNL1       -0.1673
     21 F          62.1350   82.0175   11.0940 F       1  UNL1       -0.1673
     22 N          64.2158   89.7499   12.6268 N.am    1  UNL1       -0.2791
     23 C          64.5944   89.8132   14.0768 C.2     1  UNL1        0.2672
     24 O          64.0674   88.7865   15.0351 O.2     1  UNL1       -0.2682
     25 H          64.5617   90.4238   11.9978 H       1  UNL1        0.1552
     26 C          65.5000   90.9032   14.5687 C.ar    1  UNL1        0.1348
     27 C          66.7954   91.1771   13.8639 C.ar    1  UNL1        0.0245
     28 C          67.7010   92.2671   14.3558 C.ar    1  UNL1        0.0135
     29 C          67.3110   93.0832   15.5524 C.ar    1  UNL1        0.0876
     30 C          66.0155   92.8093   16.2572 C.ar    1  UNL1        0.1092
     31 N          65.1100   91.7193   15.7653 N.ar    1  UNL1       -0.2385
     32 C          68.2166   94.1731   16.0442 C.1     1  UNL1        0.1020
     33 N          69.1221   95.2631   16.5361 N.1     1  UNL1       -0.1908
@<TRIPOS>BOND
     1     9     8    1
     2     9     1    1
     3     1     2   ar
     4     2     3   ar
     5     3    22    1
     6    22    23   am
     7    23    24    2
     8    23    26    1
     9    26    27   ar
    10    27    28   ar
    11    28    29   ar
    12    29    32    1
    13    32    33    3
    14    29    30   ar
    15    30    31   ar
    16     3     4   ar
    17     4     5   ar
    18     5     6   ar
    19     6     7    1
    20     9    10    1
    21    10    11    2
    22    11    12    1
    23    11    13    1
    24    13    14    1
    25    14    15    1
    26    15    18    1
    27    18    19    1
    28    18    20    1
    29    18    21    1
    30    15     9    1
    31     6     1   ar
    32    31    26   ar
    33    22    25    1
    34    12    16    1
    35    12    17    1
@<TRIPOS>MOLECULE
*****
 33 35 0 0 0
SMALL
GASTEIGER

@<TRIPOS>ATOM
      1 C          61.2661   88.1626   10.6702 C.ar    1  UNL1        0.0530
      2 C          62.5054   88.8866   11.1058 C.ar    1  UNL1        0.0167
      3 C          62.4094   90.0083   12.0970 C.ar    1  UNL1        0.0505
      4 C          61.0740   90.4060   12.6526 C.ar    1  UNL1        0.0170
      5 C          59.8347   89.6820   12.2169 C.ar    1  UNL1        0.0307
      6 C          59.9307   88.5603   11.2257 C.ar    1  UNL1        0.1402
      7 F          58.6913   87.8362   10.7901 F       1  UNL1       -0.2044
      8 C          62.3557   86.5718   10.7002 C.3     1  UNL1        0.0610
      9 C          61.3621   87.0408    9.6789 C.3     1  UNL1        0.2282
     10 N          60.3352   87.8994    9.0020 N.2     1  UNL1       -0.0690
     11 C          59.7493   87.4734    7.6885 C.2     1  UNL1        0.3194
     12 N          58.7224   88.3320    7.0116 N.pl3   1  UNL1       -0.2480
     13 C          60.1904   86.1887    7.0520 C.3     1  UNL1        0.2593
     14 O          61.2173   85.3302    7.7289 O.3     1  UNL1       -0.3325
     15 C          61.8032   85.7562    9.0424 C.3     1  UNL1        0.2596
     16 H          58.4329   89.1752    7.4294 H       1  UNL1        0.2882
     17 H          58.3379   88.0524    6.1495 H       1  UNL1        0.2882
     18 C          62.8301   84.8977    9.7194 C.3     1  UNL1        0.4266
     19 F          63.8569   84.0391   10.3965 F       1  UNL1       -0.1673
     20 F          61.8338   84.5459   10.7843 F       1  UNL1       -0.1673
     21 F          63.8263   85.2494    8.6546 F       1  UNL1       -0.1673
     22 N          63.6487   90.7324   12.5327 N.am    1  UNL1       -0.2791
     23 C          64.0290   90.7624   13.9834 C.2     1  UNL1        0.2672
     24 O          63.1698   90.0683   14.9984 O.2     1  UNL1       -0.2682
     25 H          64.2126   91.1880   11.8665 H       1  UNL1        0.1552
     26 C          65.2682   91.4864   14.4191 C.ar    1  UNL1        0.1348
     27 C          65.3594   92.0494   15.8065 C.ar    1  UNL1        0.0245
     28 C          66.5987   92.7734   16.2422 C.ar    1  UNL1        0.0135
     29 C          67.7469   92.9345   15.2905 C.ar    1  UNL1        0.0876
     30 C          67.6558   92.3716   13.9031 C.ar    1  UNL1        0.1092
     31 N          66.4165   91.6476   13.4674 N.ar    1  UNL1       -0.2385
     32 C          68.9862   93.6586   15.7262 C.1     1  UNL1        0.1020
     33 N          70.2255   94.3826   16.1620 N.1     1  UNL1       -0.1908
@<TRIPOS>BOND
     1     9     8    1
     2     9     1    1
     3     1     2   ar
     4     2     3   ar
     5     3    22    1
     6    22    23   am
     7    23    24    2
     8    23    26    1
     9    26    27   ar
    10    27    28   ar
    11    28    29   ar
    12    29    32    1
    13    32    33    3
    14    29    30   ar
    15    30    31   ar
    16     3     4   ar
    17     4     5   ar
    18     5     6   ar
    19     6     7    1
    20     9    10    1
    21    10    11    2
    22    11    12    1
    23    11    13    1
    24    13    14    1
    25    14    15    1
    26    15    18    1
    27    18    19    1
    28    18    20    1
    29    18    21    1
    30    15     9    1
    31     6     1   ar
    32    31    26   ar
    33    22    25    1
    34    12    16    1
    35    12    17    1
@<TRIPOS>MOLECULE
*****
 33 35 0 0 0
SMALL
GASTEIGER

@<TRIPOS>ATOM
      1 C          63.1966   83.3020   11.9648 C.ar    1  UNL1        0.0530
      2 C          62.4578   84.2913   11.1131 C.ar    1  UNL1        0.0167
      3 C          62.9422   84.5967    9.7268 C.ar    1  UNL1        0.0505
      4 C          64.1655   83.9127    9.1921 C.ar    1  UNL1        0.0170
      5 C          64.9043   82.9234   10.0438 C.ar    1  UNL1        0.0307
      6 C          64.4198   82.6181   11.4302 C.ar    1  UNL1        0.1402
      7 F          65.1586   81.6287   12.2819 F       1  UNL1       -0.2044
      8 C          62.2990   81.7378   12.6477 C.3     1  UNL1        0.0610
      9 C          62.7121   82.9966   13.3512 C.3     1  UNL1        0.2282
     10 N          63.2934   84.3614   13.5732 N.2     1  UNL1       -0.0690
     11 C          63.2469   84.9837   14.9373 C.2     1  UNL1        0.3194
     12 N          63.8282   86.3485   15.1592 N.pl3   1  UNL1       -0.2480
     13 C          62.6189   84.2411   16.0793 C.3     1  UNL1        0.2593
     14 O          62.0376   82.8763   15.8574 O.3     1  UNL1       -0.3325
     15 C          62.0842   82.2540   14.4933 C.3     1  UNL1        0.2596
     16 H          64.2403   86.8359   14.4096 H       1  UNL1        0.2882
     17 H          63.7977   86.7570   16.0545 H       1  UNL1        0.2882
     18 C          61.5029   80.8892   14.2712 C.3     1  UNL1        0.4266
     19 F          60.9215   79.5244   14.0492 F       1  UNL1       -0.1673
     20 F          60.1240   81.4795   14.2538 F       1  UNL1       -0.1673
     21 F          62.8817   80.2990   14.2887 F       1  UNL1       -0.1673
     22 N          62.2034   85.5860    8.8750 N.am    1  UNL1       -0.2791
     23 C          61.2447   86.5512    9.5069 C.2     1  UNL1        0.2672
     24 O          61.0247   86.5270   10.9905 O.2     1  UNL1       -0.2682
     25 H          62.3478   85.6019    7.9013 H       1  UNL1        0.1552
     26 C          60.5059   87.5405    8.6552 C.ar    1  UNL1        0.1348
     27 C          59.5525   87.0590    7.6020 C.ar    1  UNL1        0.0245
     28 C          58.8137   88.0484    6.7503 C.ar    1  UNL1        0.0135
     29 C          59.0283   89.5192    6.9518 C.ar    1  UNL1        0.0876
     30 C          59.9817   90.0007    8.0050 C.ar    1  UNL1        0.1092
     31 N          60.7205   89.0114    8.8567 N.ar    1  UNL1       -0.2385
     32 C          58.2895   90.5085    6.1001 C.1     1  UNL1        0.1020
     33 N          57.5507   91.4979    5.2484 N.1     1  UNL1       -0.1908
@<TRIPOS>BOND
     1     9     8    1
     2     9     1    1
     3     1     2   ar
     4     2     3   ar
     5     3    22    1
     6    22    23   am
     7    23    24    2
     8    23    26    1
     9    26    27   ar
    10    27    28   ar
    11    28    29   ar
    12    29    32    1
    13    32    33    3
    14    29    30   ar
    15    30    31   ar
    16     3     4   ar
    17     4     5   ar
    18     5     6   ar
    19     6     7    1
    20     9    10    1
    21    10    11    2
    22    11    12    1
    23    11    13    1
    24    13    14    1
    25    14    15    1
    26    15    18    1
    27    18    19    1
    28    18    20    1
    29    18    21    1
    30    15     9    1
    31     6     1   ar
    32    31    26   ar
    33    22    25    1
    34    12    16    1
    35    12    17    1
