@<TRIPOS>MOLECULE
*****
 39 44 0 0 0
SMALL
GASTEIGER

@<TRIPOS>ATOM
      1 O          62.1050   86.1464   18.0849 O.2     1  UNL1       -0.2749
      2 C          62.7637   86.0596   16.7401 C.2     1  UNL1        0.2252
      3 N          63.2896   87.3003   16.0812 N.am    1  UNL1       -0.2794
      4 C          63.1568   88.6277   16.7672 C.3     1  UNL1        0.0953
      5 C          63.6826   89.8684   16.1082 C.3     1  UNL1        0.0442
      6 C          64.3414   89.7817   14.7633 C.3     1  UNL1        0.0933
      7 C          64.4741   88.4544   14.0775 C.3     1  UNL1        0.0442
      8 C          63.9483   87.2137   14.7364 C.3     1  UNL1        0.0953
      9 N          64.8672   91.0224   14.1044 N.ar    1  UNL1       -0.2817
     10 C          64.4186   91.5780   12.7853 C.ar    1  UNL1        0.3317
     11 O          63.3653   90.9904   11.8935 O.2     1  UNL1       -0.2463
     12 N          65.2082   92.8243   12.5147 N.ar    1  UNL1       -0.2758
     13 C          66.1448   93.0390   13.6664 C.ar    1  UNL1        0.0800
     14 C          67.1623   94.1046   13.9475 C.ar    1  UNL1        0.0188
     15 C          67.9691   94.0566   15.2111 C.ar    1  UNL1        0.0016
     16 C          67.7584   92.9430   16.1936 C.ar    1  UNL1        0.0016
     17 C          66.7409   91.8773   15.9126 C.ar    1  UNL1        0.0188
     18 C          65.9341   91.9253   14.6490 C.ar    1  UNL1        0.0796
     19 C          65.0831   93.7019   11.3046 C.3     1  UNL1        0.1373
     20 C          66.2199   93.8037   10.3312 C.ar    1  UNL1        0.0014
     21 C          67.1208   92.6260   10.1044 C.ar    1  UNL1       -0.0023
     22 C          68.2575   92.7277    9.1310 C.ar    1  UNL1        0.0006
     23 C          68.4934   94.0072    8.3845 C.ar    1  UNL1        0.0114
     24 C          67.5925   95.1849    8.6113 C.ar    1  UNL1        0.0574
     25 CL         67.8283   96.4644    7.8648 Cl      1  UNL1       -0.0823
     26 C          66.4557   95.0831    9.5846 C.ar    1  UNL1        0.0090
     27 C          62.8965   84.7323   16.0542 C.3     1  UNL1        0.0795
     28 C          64.2343   84.0583   15.9775 C.3     1  UNL1        0.0264
     29 C          64.3671   82.7309   15.2916 C.3     1  UNL1        0.0729
     30 N          63.1621   82.0776   14.6823 N.3     1  UNL1       -0.2689
     31 C          61.8242   82.7518   14.7590 C.3     1  UNL1        0.0729
     32 C          61.6914   84.0791   15.4449 C.3     1  UNL1        0.0264
     33 C          63.2949   80.7503   13.9964 C.3     1  UNL1        0.0992
     34 C          63.2077   80.6666   12.5013 C.ar    1  UNL1       -0.0031
     35 C          63.5574   81.8594   11.6617 C.ar    1  UNL1        0.0178
     36 C          63.4702   81.7758   10.1666 C.ar    1  UNL1        0.0986
     37 N          63.0333   80.4993    9.5111 N.ar    1  UNL1       -0.2423
     38 C          62.6836   79.3065   10.3506 C.ar    1  UNL1        0.0986
     39 C          62.7708   79.3901   11.8457 C.ar    1  UNL1        0.0178
@<TRIPOS>BOND
     1     1     2    2
     2     2    27    1
     3    27    28    1
     4    28    29    1
     5    29    30    1
     6    30    33    1
     7    33    34    1
     8    34    35   ar
     9    35    36   ar
    10    36    37   ar
    11    37    38   ar
    12    38    39   ar
    13    30    31    1
    14    31    32    1
    15     2     3   am
    16     3     4    1
    17     4     5    1
    18     5     6    1
    19     6     9    1
    20     9    10   ar
    21    10    11    2
    22    10    12   ar
    23    12    19    1
    24    19    20    1
    25    20    21   ar
    26    21    22   ar
    27    22    23   ar
    28    23    24   ar
    29    24    25    1
    30    24    26   ar
    31    12    13   ar
    32    13    14   ar
    33    14    15   ar
    34    15    16   ar
    35    16    17   ar
    36    17    18   ar
    37     6     7    1
    38     7     8    1
    39    32    27    1
    40     8     3    1
    41    39    34   ar
    42    18     9   ar
    43    26    20   ar
    44    18    13   ar
@<TRIPOS>MOLECULE
*****
 39 44 0 0 0
SMALL
GASTEIGER

@<TRIPOS>ATOM
      1 O          58.2799   87.4048    7.0395 O.2     1  UNL1       -0.2749
      2 C          59.2155   88.5461    7.3078 C.2     1  UNL1        0.2252
      3 N          60.0779   88.5363    8.5350 N.am    1  UNL1       -0.2794
      4 C          60.0047   87.3851    9.4939 C.3     1  UNL1        0.0953
      5 C          60.8672   87.3752   10.7212 C.3     1  UNL1        0.0442
      6 C          61.8029   88.5166   10.9895 C.3     1  UNL1        0.0933
      7 C          61.8760   89.6676   10.0306 C.3     1  UNL1        0.0442
      8 C          61.0136   89.6775    8.8034 C.3     1  UNL1        0.0953
      9 N          62.6653   88.5067   12.2168 N.ar    1  UNL1       -0.2817
     10 C          63.0848   89.7091   13.0093 C.ar    1  UNL1        0.3317
     11 O          62.7155   91.1326   12.7138 O.2     1  UNL1       -0.2463
     12 N          63.9384   89.2382   14.1492 N.ar    1  UNL1       -0.2758
     13 C          64.0465   87.7446   14.0612 C.ar    1  UNL1        0.0800
     14 C          64.7598   86.7380   14.9143 C.ar    1  UNL1        0.0188
     15 C          64.6862   85.2792   14.5731 C.ar    1  UNL1        0.0016
     16 C          63.8993   84.8271   13.3787 C.ar    1  UNL1        0.0016
     17 C          63.1861   85.8338   12.5256 C.ar    1  UNL1        0.0188
     18 C          63.2597   87.2926   12.8669 C.ar    1  UNL1        0.0796
     19 C          64.5726   90.1080   15.1939 C.3     1  UNL1        0.1373
     20 C          65.4631   91.2437   14.7846 C.ar    1  UNL1        0.0014
     21 C          66.0752   92.1304   15.8281 C.ar    1  UNL1       -0.0023
     22 C          66.9656   93.2661   15.4189 C.ar    1  UNL1        0.0006
     23 C          67.2439   93.5149   13.9661 C.ar    1  UNL1        0.0114
     24 C          66.6318   92.6282   12.9226 C.ar    1  UNL1        0.0574
     25 CL         66.9101   92.8770   11.4698 Cl      1  UNL1       -0.0823
     26 C          65.7414   91.4925   13.3318 C.ar    1  UNL1        0.0090
     27 C          59.2887   89.6973    6.3489 C.3     1  UNL1        0.0795
     28 C          60.6051   90.0879    5.7452 C.3     1  UNL1        0.0264
     29 C          60.6783   91.2391    4.7863 C.3     1  UNL1        0.0729
     30 N          59.4351   91.9996    4.4312 N.3     1  UNL1       -0.2689
     31 C          58.1187   91.6090    5.0350 C.3     1  UNL1        0.0729
     32 C          58.0455   90.4578    5.9939 C.3     1  UNL1        0.0264
     33 C          59.5083   93.1508    3.4723 C.3     1  UNL1        0.0992
     34 C          60.2165   92.9899    2.1599 C.ar    1  UNL1       -0.0031
     35 C          59.4305   92.7137    0.9125 C.ar    1  UNL1        0.0178
     36 C          60.1386   92.5528   -0.4000 C.ar    1  UNL1        0.0986
     37 N          61.6327   92.6680   -0.4651 N.ar    1  UNL1       -0.2423
     38 C          62.4187   92.9443    0.7823 C.ar    1  UNL1        0.0986
     39 C          61.7106   93.1052    2.0947 C.ar    1  UNL1        0.0178
@<TRIPOS>BOND
     1     1     2    2
     2     2    27    1
     3    27    28    1
     4    28    29    1
     5    29    30    1
     6    30    33    1
     7    33    34    1
     8    34    35   ar
     9    35    36   ar
    10    36    37   ar
    11    37    38   ar
    12    38    39   ar
    13    30    31    1
    14    31    32    1
    15     2     3   am
    16     3     4    1
    17     4     5    1
    18     5     6    1
    19     6     9    1
    20     9    10   ar
    21    10    11    2
    22    10    12   ar
    23    12    19    1
    24    19    20    1
    25    20    21   ar
    26    21    22   ar
    27    22    23   ar
    28    23    24   ar
    29    24    25    1
    30    24    26   ar
    31    12    13   ar
    32    13    14   ar
    33    14    15   ar
    34    15    16   ar
    35    16    17   ar
    36    17    18   ar
    37     6     7    1
    38     7     8    1
    39    32    27    1
    40     8     3    1
    41    39    34   ar
    42    18     9   ar
    43    26    20   ar
    44    18    13   ar
@<TRIPOS>MOLECULE
*****
 39 44 0 0 0
SMALL
GASTEIGER

@<TRIPOS>ATOM
      1 O          57.9634   87.9533    6.7950 O.2     1  UNL1       -0.2749
      2 C          59.0459   88.9645    7.0308 C.2     1  UNL1        0.2252
      3 N          59.9446   88.8363    8.2249 N.am    1  UNL1       -0.2794
      4 C          59.7609   87.6970    9.1831 C.3     1  UNL1        0.0953
      5 C          60.6596   87.5688   10.3771 C.3     1  UNL1        0.0442
      6 C          61.7422   88.5801   10.6131 C.3     1  UNL1        0.0933
      7 C          61.9258   89.7194    9.6550 C.3     1  UNL1        0.0442
      8 C          61.0271   89.8476    8.4609 C.3     1  UNL1        0.0953
      9 N          62.6409   88.4519   11.8072 N.ar    1  UNL1       -0.2817
     10 C          62.9324   87.1874   12.5596 C.ar    1  UNL1        0.3317
     11 O          62.3763   85.8291   12.2502 O.2     1  UNL1       -0.2463
     12 N          63.8776   87.5198   13.6759 N.ar    1  UNL1       -0.2758
     13 C          64.1703   88.9896   13.6134 C.ar    1  UNL1        0.0800
     14 C          65.0340   89.8779   14.4589 C.ar    1  UNL1        0.0188
     15 C          65.1334   91.3422   14.1494 C.ar    1  UNL1        0.0016
     16 C          64.3691   91.9183   12.9945 C.ar    1  UNL1        0.0016
     17 C          63.5054   91.0300   12.1490 C.ar    1  UNL1        0.0188
     18 C          63.4060   89.5657   12.4584 C.ar    1  UNL1        0.0796
     19 C          64.4326   86.5522   14.6788 C.3     1  UNL1        0.1373
     20 C          63.9783   85.1226   14.6727 C.ar    1  UNL1        0.0014
     21 C          62.9329   84.6637   15.6456 C.ar    1  UNL1       -0.0023
     22 C          62.4786   83.2342   15.6396 C.ar    1  UNL1        0.0006
     23 C          63.0697   82.2636   14.6607 C.ar    1  UNL1        0.0114
     24 C          64.1151   82.7224   13.6878 C.ar    1  UNL1        0.0574
     25 CL         64.7062   81.7518   12.7088 Cl      1  UNL1       -0.0823
     26 C          64.5694   84.1519   13.6937 C.ar    1  UNL1        0.0090
     27 C          59.2296   90.1039    6.0727 C.3     1  UNL1        0.0795
     28 C          58.0451   90.9123    5.6328 C.3     1  UNL1        0.0264
     29 C          58.2289   92.0517    4.6746 C.3     1  UNL1        0.0729
     30 N          59.5971   92.3827    4.1564 N.3     1  UNL1       -0.2689
     31 C          60.7816   91.5742    4.5964 C.3     1  UNL1        0.0729
     32 C          60.5978   90.4348    5.5545 C.3     1  UNL1        0.0264
     33 C          59.7808   93.5221    3.1983 C.3     1  UNL1        0.0992
     34 C          60.3439   93.2691    1.8313 C.ar    1  UNL1       -0.0031
     35 C          61.8055   93.4835    1.5708 C.ar    1  UNL1        0.0178
     36 C          62.3687   93.2306    0.2038 C.ar    1  UNL1        0.0986
     37 N          61.4704   92.7633   -0.9028 N.ar    1  UNL1       -0.2423
     38 C          60.0088   92.5489   -0.6424 C.ar    1  UNL1        0.0986
     39 C          59.4456   92.8018    0.7247 C.ar    1  UNL1        0.0178
@<TRIPOS>BOND
     1     1     2    2
     2     2    27    1
     3    27    28    1
     4    28    29    1
     5    29    30    1
     6    30    33    1
     7    33    34    1
     8    34    35   ar
     9    35    36   ar
    10    36    37   ar
    11    37    38   ar
    12    38    39   ar
    13    30    31    1
    14    31    32    1
    15     2     3   am
    16     3     4    1
    17     4     5    1
    18     5     6    1
    19     6     9    1
    20     9    10   ar
    21    10    11    2
    22    10    12   ar
    23    12    19    1
    24    19    20    1
    25    20    21   ar
    26    21    22   ar
    27    22    23   ar
    28    23    24   ar
    29    24    25    1
    30    24    26   ar
    31    12    13   ar
    32    13    14   ar
    33    14    15   ar
    34    15    16   ar
    35    16    17   ar
    36    17    18   ar
    37     6     7    1
    38     7     8    1
    39    32    27    1
    40     8     3    1
    41    39    34   ar
    42    18     9   ar
    43    26    20   ar
    44    18    13   ar
@<TRIPOS>MOLECULE
*****
 39 44 0 0 0
SMALL
GASTEIGER

@<TRIPOS>ATOM
      1 O          57.1245   90.8377    5.8019 O.2     1  UNL1       -0.2749
      2 C          58.6072   90.6147    5.8418 C.2     1  UNL1        0.2252
      3 N          59.4846   91.2152    4.7836 N.am    1  UNL1       -0.2794
      4 C          58.8791   92.0386    3.6856 C.3     1  UNL1        0.0953
      5 C          59.7564   92.6390    2.6275 C.3     1  UNL1        0.0442
      6 C          61.2393   92.4161    2.6672 C.3     1  UNL1        0.0933
      7 C          61.8447   91.5928    3.7651 C.3     1  UNL1        0.0442
      8 C          60.9674   90.9923    4.8233 C.3     1  UNL1        0.0953
      9 N          62.1167   93.0166    1.6091 N.ar    1  UNL1       -0.2817
     10 C          62.0132   92.7694    0.1332 C.ar    1  UNL1        0.3317
     11 O          61.0143   91.8783   -0.5436 O.2     1  UNL1       -0.2463
     12 N          63.0841   93.5697   -0.5470 N.ar    1  UNL1       -0.2758
     13 C          63.8494   94.3115    0.5085 C.ar    1  UNL1        0.0800
     14 C          65.0134   95.2541    0.4284 C.ar    1  UNL1        0.0188
     15 C          65.5796   95.8549    1.6808 C.ar    1  UNL1        0.0016
     16 C          64.9816   95.5130    3.0133 C.ar    1  UNL1        0.0016
     17 C          63.8176   94.5704    3.0934 C.ar    1  UNL1        0.0188
     18 C          63.2515   93.9697    1.8410 C.ar    1  UNL1        0.0796
     19 C          63.3441   93.6195   -2.0234 C.3     1  UNL1        0.1373
     20 C          62.4534   94.4333   -2.9148 C.ar    1  UNL1        0.0014
     21 C          62.8721   95.8099   -3.3385 C.ar    1  UNL1       -0.0023
     22 C          61.9815   96.6238   -4.2298 C.ar    1  UNL1        0.0006
     23 C          60.6721   96.0609   -4.6975 C.ar    1  UNL1        0.0114
     24 C          60.2534   94.6842   -4.2738 C.ar    1  UNL1        0.0574
     25 CL         58.9440   94.1214   -4.7415 Cl      1  UNL1       -0.0823
     26 C          61.1440   93.8704   -3.3825 C.ar    1  UNL1        0.0090
     27 C          59.2127   89.7914    6.9397 C.3     1  UNL1        0.0795
     28 C          60.0489   90.4496    7.9968 C.3     1  UNL1        0.0264
     29 C          60.6543   89.6262    9.0947 C.3     1  UNL1        0.0729
     30 N          60.4236   88.1446    9.1355 N.3     1  UNL1       -0.2689
     31 C          59.5874   87.4864    8.0783 C.3     1  UNL1        0.0729
     32 C          58.9820   88.3097    6.9804 C.3     1  UNL1        0.0264
     33 C          61.0291   87.3213   10.2335 C.3     1  UNL1        0.0992
     34 C          61.9247   86.1658    9.8978 C.ar    1  UNL1       -0.0031
     35 C          62.4061   85.9744    8.4901 C.ar    1  UNL1        0.0178
     36 C          63.3017   84.8189    8.1543 C.ar    1  UNL1        0.0986
     37 N          63.7159   83.8549    9.2262 N.ar    1  UNL1       -0.2423
     38 C          63.2345   84.0463   10.6339 C.ar    1  UNL1        0.0986
     39 C          62.3389   85.2018   10.9697 C.ar    1  UNL1        0.0178
@<TRIPOS>BOND
     1     1     2    2
     2     2    27    1
     3    27    28    1
     4    28    29    1
     5    29    30    1
     6    30    33    1
     7    33    34    1
     8    34    35   ar
     9    35    36   ar
    10    36    37   ar
    11    37    38   ar
    12    38    39   ar
    13    30    31    1
    14    31    32    1
    15     2     3   am
    16     3     4    1
    17     4     5    1
    18     5     6    1
    19     6     9    1
    20     9    10   ar
    21    10    11    2
    22    10    12   ar
    23    12    19    1
    24    19    20    1
    25    20    21   ar
    26    21    22   ar
    27    22    23   ar
    28    23    24   ar
    29    24    25    1
    30    24    26   ar
    31    12    13   ar
    32    13    14   ar
    33    14    15   ar
    34    15    16   ar
    35    16    17   ar
    36    17    18   ar
    37     6     7    1
    38     7     8    1
    39    32    27    1
    40     8     3    1
    41    39    34   ar
    42    18     9   ar
    43    26    20   ar
    44    18    13   ar
@<TRIPOS>MOLECULE
*****
 39 44 0 0 0
SMALL
GASTEIGER

@<TRIPOS>ATOM
      1 O          57.2932   90.9114    5.9682 O.2     1  UNL1       -0.2749
      2 C          58.7423   90.5448    5.8432 C.2     1  UNL1        0.2252
      3 N          59.5840   91.1698    4.7703 N.am    1  UNL1       -0.2794
      4 C          58.9766   92.1612    3.8227 C.3     1  UNL1        0.0953
      5 C          59.8184   92.7862    2.7498 C.3     1  UNL1        0.0442
      6 C          61.2676   92.4196    2.6247 C.3     1  UNL1        0.0933
      7 C          61.8749   91.4282    3.5724 C.3     1  UNL1        0.0442
      8 C          61.0332   90.8033    4.6452 C.3     1  UNL1        0.0953
      9 N          62.1093   93.0446    1.5519 N.ar    1  UNL1       -0.2817
     10 C          61.9739   92.8104    0.0765 C.ar    1  UNL1        0.3317
     11 O          60.9730   91.9102   -0.5852 O.2     1  UNL1       -0.2463
     12 N          63.0152   93.6345   -0.6211 N.ar    1  UNL1       -0.2758
     13 C          63.7941   94.3780    0.4232 C.ar    1  UNL1        0.0800
     14 C          64.9408   95.3399    0.3246 C.ar    1  UNL1        0.0188
     15 C          65.5277   95.9372    1.5691 C.ar    1  UNL1        0.0016
     16 C          64.9678   95.5726    2.9121 C.ar    1  UNL1        0.0016
     17 C          63.8211   94.6107    3.0106 C.ar    1  UNL1        0.0188
     18 C          63.2343   94.0134    1.7661 C.ar    1  UNL1        0.0796
     19 C          63.2383   93.7031   -2.1028 C.3     1  UNL1        0.1373
     20 C          62.1767   94.2743   -2.9956 C.ar    1  UNL1        0.0014
     21 C          61.0104   95.0062   -2.4006 C.ar    1  UNL1       -0.0023
     22 C          59.9488   95.5774   -3.2932 C.ar    1  UNL1        0.0006
     23 C          60.0536   95.4166   -4.7809 C.ar    1  UNL1        0.0114
     24 C          61.2198   94.6846   -5.3758 C.ar    1  UNL1        0.0574
     25 CL         61.3246   94.5238   -6.8635 Cl      1  UNL1       -0.0823
     26 C          62.2814   94.1135   -4.4832 C.ar    1  UNL1        0.0090
     27 C          59.3497   89.5534    6.7908 C.3     1  UNL1        0.0795
     28 C          59.2377   88.0838    6.5122 C.3     1  UNL1        0.0264
     29 C          59.8451   87.0924    7.4599 C.3     1  UNL1        0.0729
     30 N          60.5645   87.5705    8.6862 N.3     1  UNL1       -0.2689
     31 C          60.6765   89.0403    8.9648 C.3     1  UNL1        0.0729
     32 C          60.0691   90.0317    8.0172 C.3     1  UNL1        0.0264
     33 C          61.1719   86.5791    9.6339 C.3     1  UNL1        0.0992
     34 C          61.9871   87.0572   10.7987 C.ar    1  UNL1       -0.0031
     35 C          62.2085   88.5261   11.0066 C.ar    1  UNL1        0.0178
     36 C          63.0237   89.0043   12.1714 C.ar    1  UNL1        0.0986
     37 N          63.6174   88.0135   13.1284 N.ar    1  UNL1       -0.2423
     38 C          63.3960   86.5445   12.9205 C.ar    1  UNL1        0.0986
     39 C          62.5808   86.0664   11.7557 C.ar    1  UNL1        0.0178
@<TRIPOS>BOND
     1     1     2    2
     2     2    27    1
     3    27    28    1
     4    28    29    1
     5    29    30    1
     6    30    33    1
     7    33    34    1
     8    34    35   ar
     9    35    36   ar
    10    36    37   ar
    11    37    38   ar
    12    38    39   ar
    13    30    31    1
    14    31    32    1
    15     2     3   am
    16     3     4    1
    17     4     5    1
    18     5     6    1
    19     6     9    1
    20     9    10   ar
    21    10    11    2
    22    10    12   ar
    23    12    19    1
    24    19    20    1
    25    20    21   ar
    26    21    22   ar
    27    22    23   ar
    28    23    24   ar
    29    24    25    1
    30    24    26   ar
    31    12    13   ar
    32    13    14   ar
    33    14    15   ar
    34    15    16   ar
    35    16    17   ar
    36    17    18   ar
    37     6     7    1
    38     7     8    1
    39    32    27    1
    40     8     3    1
    41    39    34   ar
    42    18     9   ar
    43    26    20   ar
    44    18    13   ar
@<TRIPOS>MOLECULE
*****
 39 44 0 0 0
SMALL
GASTEIGER

@<TRIPOS>ATOM
      1 O          62.6236   85.6819   18.0829 O.2     1  UNL1       -0.2749
      2 C          62.9773   85.5745   16.6292 C.2     1  UNL1        0.2252
      3 N          63.3580   86.8030   15.8572 N.am    1  UNL1       -0.2794
      4 C          63.3849   88.1388   16.5389 C.3     1  UNL1        0.0953
      5 C          63.7656   89.3673   15.7670 C.3     1  UNL1        0.0442
      6 C          64.1193   89.2599   14.3131 C.3     1  UNL1        0.0933
      7 C          64.0923   87.9241   13.6315 C.3     1  UNL1        0.0442
      8 C          63.7117   86.6956   14.4035 C.3     1  UNL1        0.0953
      9 N          64.4999   90.4884   13.5412 N.ar    1  UNL1       -0.2817
     10 C          65.4419   91.5617   14.0004 C.ar    1  UNL1        0.3317
     11 O          66.1686   91.5949   15.3122 O.2     1  UNL1       -0.2463
     12 N          65.5295   92.5958   12.9175 N.ar    1  UNL1       -0.2758
     13 C          64.6418   92.1618   11.7890 C.ar    1  UNL1        0.0800
     14 C          64.3307   92.7843   10.4602 C.ar    1  UNL1        0.0188
     15 C          63.3832   92.1042    9.5169 C.ar    1  UNL1        0.0016
     16 C          62.7469   90.8018    9.9024 C.ar    1  UNL1        0.0016
     17 C          63.0580   90.1793   11.2312 C.ar    1  UNL1        0.0188
     18 C          64.0055   90.8593   12.1744 C.ar    1  UNL1        0.0796
     19 C          66.3593   93.8449   12.9562 C.3     1  UNL1        0.1373
     20 C          66.5969   94.6268   11.6982 C.ar    1  UNL1        0.0014
     21 C          66.2053   96.0731   11.6289 C.ar    1  UNL1       -0.0023
     22 C          66.4429   96.8550   10.3711 C.ar    1  UNL1        0.0006
     23 C          67.0721   96.1905    9.1826 C.ar    1  UNL1        0.0114
     24 C          67.4637   94.7441    9.2519 C.ar    1  UNL1        0.0574
     25 CL         68.0928   94.0797    8.0634 Cl      1  UNL1       -0.0823
     26 C          67.2261   93.9623   10.5097 C.ar    1  UNL1        0.0090
     27 C          62.9503   84.2387   15.9474 C.3     1  UNL1        0.0795
     28 C          61.6564   83.6902   15.4232 C.3     1  UNL1        0.0264
     29 C          61.6295   82.3543   14.7414 C.3     1  UNL1        0.0729
     30 N          62.8965   81.5670   14.5839 N.3     1  UNL1       -0.2689
     31 C          64.1905   82.1155   15.1082 C.3     1  UNL1        0.0729
     32 C          64.2174   83.4514   15.7899 C.3     1  UNL1        0.0264
     33 C          62.8695   80.2312   13.9021 C.3     1  UNL1        0.0992
     34 C          62.8909   80.1529   12.4044 C.ar    1  UNL1       -0.0031
     35 C          63.1512   81.3871   11.5926 C.ar    1  UNL1        0.0178
     36 C          63.1726   81.3090   10.0948 C.ar    1  UNL1        0.0986
     37 N          62.9338   79.9966    9.4088 N.ar    1  UNL1       -0.2423
     38 C          62.6736   78.7624   10.2205 C.ar    1  UNL1        0.0986
     39 C          62.6521   78.8405   11.7183 C.ar    1  UNL1        0.0178
@<TRIPOS>BOND
     1     1     2    2
     2     2    27    1
     3    27    28    1
     4    28    29    1
     5    29    30    1
     6    30    33    1
     7    33    34    1
     8    34    35   ar
     9    35    36   ar
    10    36    37   ar
    11    37    38   ar
    12    38    39   ar
    13    30    31    1
    14    31    32    1
    15     2     3   am
    16     3     4    1
    17     4     5    1
    18     5     6    1
    19     6     9    1
    20     9    10   ar
    21    10    11    2
    22    10    12   ar
    23    12    19    1
    24    19    20    1
    25    20    21   ar
    26    21    22   ar
    27    22    23   ar
    28    23    24   ar
    29    24    25    1
    30    24    26   ar
    31    12    13   ar
    32    13    14   ar
    33    14    15   ar
    34    15    16   ar
    35    16    17   ar
    36    17    18   ar
    37     6     7    1
    38     7     8    1
    39    32    27    1
    40     8     3    1
    41    39    34   ar
    42    18     9   ar
    43    26    20   ar
    44    18    13   ar
