@<TRIPOS>MOLECULE
*****
 28 32 0 0 0
SMALL
GASTEIGER

@<TRIPOS>ATOM
      1 C          61.4505   87.5212    9.9909 C.ar    1  UNL1        0.0734
      2 C          60.0036   87.7238   10.3306 C.ar    1  UNL1        0.1137
      3 N          59.6062   88.7788   11.3200 N.ar    1  UNL1       -0.2409
      4 C          60.6556   89.6311   11.9698 C.ar    1  UNL1        0.1009
      5 C          62.1025   89.4285   11.6301 C.ar    1  UNL1        0.0442
      6 C          62.5000   88.3735   10.6407 C.ar    1  UNL1        0.0200
      7 C          63.1519   90.2808   12.2799 C.ar    1  UNL1        0.1122
      8 N          63.9391   91.3706   11.6145 N.ar    1  UNL1       -0.2383
      9 C          64.8721   91.9564   12.6326 C.ar    1  UNL1        0.0879
     10 C          65.8861   93.0584   12.5480 C.ar    1  UNL1        0.0196
     11 C          66.6897   93.4326   13.7580 C.ar    1  UNL1        0.0016
     12 C          66.4792   92.7048   15.0526 C.ar    1  UNL1        0.0006
     13 C          65.4651   91.6028   15.1372 C.ar    1  UNL1        0.0080
     14 C          64.6616   91.2286   13.9272 C.ar    1  UNL1        0.0485
     15 S          63.5984   90.1931   13.7092 S.2     1  UNL1       -0.0664
     16 O          59.6852   86.9295    7.6386 O.2     1  UNL1       -0.2745
     17 C          60.9654   86.1703    7.8253 C.2     1  UNL1        0.2292
     18 N          61.8481   86.4662    9.0015 N.am    1  UNL1       -0.2528
     19 C          61.3629   85.1154    6.8359 C.3     1  UNL1        0.0771
     20 C          62.4249   84.4079    6.0475 C.3     1  UNL1        0.0096
     21 C          60.9892   83.9955    5.9104 C.3     1  UNL1        0.0096
     22 C          63.1282   85.7071    9.1882 C.3     1  UNL1        0.1263
     23 C          63.1867   84.5612   10.1545 C.ar    1  UNL1        0.0172
     24 C          63.9126   83.3025    9.7822 C.ar    1  UNL1        0.0005
     25 C          63.9710   82.1567   10.7485 C.ar    1  UNL1        0.0204
     26 C          63.3035   82.2697   12.0871 C.ar    1  UNL1        0.0989
     27 N          62.5776   83.5284   12.4593 N.ar    1  UNL1       -0.2426
     28 C          62.5192   84.6742   11.4930 C.ar    1  UNL1        0.0962
@<TRIPOS>BOND
     1    16    17    2
     2    17    19    1
     3    19    20    1
     4    20    21    1
     5    17    18   am
     6    18    22    1
     7    22    23    1
     8    23    24   ar
     9    24    25   ar
    10    25    26   ar
    11    26    27   ar
    12    27    28   ar
    13    18     1    1
    14     1     2   ar
    15     2     3   ar
    16     3     4   ar
    17     4     5   ar
    18     5     7    1
    19     7     8   ar
    20     8     9   ar
    21     9    10   ar
    22    10    11   ar
    23    11    12   ar
    24    12    13   ar
    25    13    14   ar
    26    14    15   ar
    27     5     6   ar
    28    21    19    1
    29    28    23   ar
    30     6     1   ar
    31    15     7   ar
    32    14     9   ar
@<TRIPOS>MOLECULE
*****
 28 32 0 0 0
SMALL
GASTEIGER

@<TRIPOS>ATOM
      1 C          63.8270   90.6996   12.2217 C.ar    1  UNL1        0.0734
      2 C          62.8566   91.1896   11.1883 C.ar    1  UNL1        0.1137
      3 N          61.9220   90.2252   10.5201 N.ar    1  UNL1       -0.2409
      4 C          61.9578   88.7708   10.8854 C.ar    1  UNL1        0.1009
      5 C          62.9283   88.2808   11.9189 C.ar    1  UNL1        0.0442
      6 C          63.8629   89.2452   12.5870 C.ar    1  UNL1        0.0200
      7 C          62.9641   86.8264   12.2842 C.ar    1  UNL1        0.1122
      8 N          63.4806   86.2528   13.5704 N.ar    1  UNL1       -0.2383
      9 C          63.3255   84.7622   13.5086 C.ar    1  UNL1        0.0879
     10 C          63.6627   83.6765   14.4872 C.ar    1  UNL1        0.0196
     11 C          63.3876   82.2432   14.1413 C.ar    1  UNL1        0.0016
     12 C          62.7752   81.8954   12.8169 C.ar    1  UNL1        0.0006
     13 C          62.4380   82.9810   11.8383 C.ar    1  UNL1        0.0080
     14 C          62.7131   84.4144   12.1842 C.ar    1  UNL1        0.0485
     15 S          62.4898   85.6902   11.4275 S.2     1  UNL1       -0.0664
     16 O          64.9791   90.0503   14.9145 O.2     1  UNL1       -0.2745
     17 C          65.3377   91.3393   14.2363 C.2     1  UNL1        0.2292
     18 N          64.7617   91.6640   12.8899 N.am    1  UNL1       -0.2528
     19 C          66.2724   92.3036   14.9045 C.3     1  UNL1        0.0771
     20 C          67.1671   93.5055   14.8346 C.3     1  UNL1        0.0096
     21 C          66.9964   92.7720   16.1318 C.3     1  UNL1        0.0096
     22 C          65.1203   92.9529   12.2117 C.3     1  UNL1        0.1263
     23 C          66.2147   92.9817   11.1862 C.ar    1  UNL1        0.0172
     24 C          67.3225   91.9721   11.2431 C.ar    1  UNL1        0.0005
     25 C          68.4168   92.0009   10.2176 C.ar    1  UNL1        0.0204
     26 C          68.4033   93.0394    9.1353 C.ar    1  UNL1        0.0989
     27 N          67.2954   94.0490    9.0784 N.ar    1  UNL1       -0.2426
     28 C          66.2011   94.0202   10.1039 C.ar    1  UNL1        0.0962
@<TRIPOS>BOND
     1    16    17    2
     2    17    19    1
     3    19    20    1
     4    20    21    1
     5    17    18   am
     6    18    22    1
     7    22    23    1
     8    23    24   ar
     9    24    25   ar
    10    25    26   ar
    11    26    27   ar
    12    27    28   ar
    13    18     1    1
    14     1     2   ar
    15     2     3   ar
    16     3     4   ar
    17     4     5   ar
    18     5     7    1
    19     7     8   ar
    20     8     9   ar
    21     9    10   ar
    22    10    11   ar
    23    11    12   ar
    24    12    13   ar
    25    13    14   ar
    26    14    15   ar
    27     5     6   ar
    28    21    19    1
    29    28    23   ar
    30     6     1   ar
    31    15     7   ar
    32    14     9   ar
@<TRIPOS>MOLECULE
*****
 28 32 0 0 0
SMALL
GASTEIGER

@<TRIPOS>ATOM
      1 C          63.3350   89.7582   12.2781 C.ar    1  UNL1        0.0734
      2 C          62.6868   90.2164   11.0054 C.ar    1  UNL1        0.1137
      3 N          62.0564   89.2160   10.0825 N.ar    1  UNL1       -0.2409
      4 C          62.0742   87.7575   10.4323 C.ar    1  UNL1        0.1009
      5 C          62.7224   87.2993   11.7050 C.ar    1  UNL1        0.0442
      6 C          63.3528   88.2997   12.6279 C.ar    1  UNL1        0.0200
      7 C          62.7402   85.8408   12.0549 C.ar    1  UNL1        0.1122
      8 N          62.7062   85.2658   13.4398 N.ar    1  UNL1       -0.2383
      9 C          62.7401   83.7708   13.3221 C.ar    1  UNL1        0.0879
     10 C          62.7280   82.6822   14.3539 C.ar    1  UNL1        0.0196
     11 C          62.7710   81.2446   13.9279 C.ar    1  UNL1        0.0016
     12 C          62.8260   80.8957   12.4701 C.ar    1  UNL1        0.0006
     13 C          62.8381   81.9843   11.4383 C.ar    1  UNL1        0.0080
     14 C          62.7952   83.4218   11.8643 C.ar    1  UNL1        0.0485
     15 S          62.7952   84.7012   11.0811 S.2     1  UNL1       -0.0664
     16 O          63.6025   89.1413   15.2018 O.2     1  UNL1       -0.2745
     17 C          64.0992   90.4502   14.6630 C.2     1  UNL1        0.2292
     18 N          63.9655   90.7586   13.2011 N.am    1  UNL1       -0.2528
     19 C          64.7296   91.4505   15.5859 C.3     1  UNL1        0.0771
     20 C          65.8925   92.3213   15.9589 C.3     1  UNL1        0.0096
     21 C          64.6586   92.3122   16.8116 C.3     1  UNL1        0.0096
     22 C          64.4622   92.0674   12.6622 C.3     1  UNL1        0.1263
     23 C          65.7911   92.1376   11.9701 C.ar    1  UNL1        0.0172
     24 C          65.8610   92.4973   10.5155 C.ar    1  UNL1        0.0005
     25 C          67.1899   92.5675    9.8234 C.ar    1  UNL1        0.0204
     26 C          68.4489   92.2781   10.5858 C.ar    1  UNL1        0.0989
     27 N          68.3790   91.9185   12.0404 N.ar    1  UNL1       -0.2426
     28 C          67.0501   91.8482   12.7325 C.ar    1  UNL1        0.0962
@<TRIPOS>BOND
     1    16    17    2
     2    17    19    1
     3    19    20    1
     4    20    21    1
     5    17    18   am
     6    18    22    1
     7    22    23    1
     8    23    24   ar
     9    24    25   ar
    10    25    26   ar
    11    26    27   ar
    12    27    28   ar
    13    18     1    1
    14     1     2   ar
    15     2     3   ar
    16     3     4   ar
    17     4     5   ar
    18     5     7    1
    19     7     8   ar
    20     8     9   ar
    21     9    10   ar
    22    10    11   ar
    23    11    12   ar
    24    12    13   ar
    25    13    14   ar
    26    14    15   ar
    27     5     6   ar
    28    21    19    1
    29    28    23   ar
    30     6     1   ar
    31    15     7   ar
    32    14     9   ar
@<TRIPOS>MOLECULE
*****
 28 32 0 0 0
SMALL
GASTEIGER

@<TRIPOS>ATOM
      1 C          63.9966   89.9420   13.9104 C.ar    1  UNL1        0.0734
      2 C          63.8430   90.2932   15.3606 C.ar    1  UNL1        0.1137
      3 N          63.6069   89.2120   16.3731 N.ar    1  UNL1       -0.2409
      4 C          63.5243   87.7796   15.9354 C.ar    1  UNL1        0.1009
      5 C          63.6778   87.4285   14.4853 C.ar    1  UNL1        0.0442
      6 C          63.9140   88.5097   13.4728 C.ar    1  UNL1        0.0200
      7 C          63.5952   85.9961   14.0476 C.ar    1  UNL1        0.1122
      8 N          63.1083   85.5079   12.7155 N.ar    1  UNL1       -0.2383
      9 C          63.1971   84.0106   12.7098 C.ar    1  UNL1        0.0879
     10 C          62.8547   82.9888   11.6664 C.ar    1  UNL1        0.0196
     11 C          63.0540   81.5297   11.9517 C.ar    1  UNL1        0.0016
     12 C          63.5958   81.0925   13.2803 C.ar    1  UNL1        0.0006
     13 C          63.9383   82.1143   14.3237 C.ar    1  UNL1        0.0080
     14 C          63.7389   83.5733   14.0384 C.ar    1  UNL1        0.0485
     15 S          63.9849   84.8005   14.8652 S.2     1  UNL1       -0.0664
     16 O          66.5360   91.5375   13.9844 O.2     1  UNL1       -0.2745
     17 C          65.5025   91.8210   12.9348 C.2     1  UNL1        0.2292
     18 N          64.2327   91.0232   12.8978 N.am    1  UNL1       -0.2528
     19 C          65.7387   92.9022   11.9223 C.3     1  UNL1        0.0771
     20 C          66.1074   94.3193   11.5971 C.3     1  UNL1        0.0096
     21 C          65.7791   93.3577   10.4937 C.3     1  UNL1        0.0096
     22 C          63.1992   91.3066   11.8484 C.3     1  UNL1        0.1263
     23 C          62.2688   90.2192   11.3990 C.ar    1  UNL1        0.0172
     24 C          62.6410   89.3461   10.2376 C.ar    1  UNL1        0.0005
     25 C          61.7106   88.2587    9.7883 C.ar    1  UNL1        0.0204
     26 C          60.4079   88.0445   10.5005 C.ar    1  UNL1        0.0989
     27 N          60.0357   88.9176   11.6619 N.ar    1  UNL1       -0.2426
     28 C          60.9661   90.0050   12.1112 C.ar    1  UNL1        0.0962
@<TRIPOS>BOND
     1    16    17    2
     2    17    19    1
     3    19    20    1
     4    20    21    1
     5    17    18   am
     6    18    22    1
     7    22    23    1
     8    23    24   ar
     9    24    25   ar
    10    25    26   ar
    11    26    27   ar
    12    27    28   ar
    13    18     1    1
    14     1     2   ar
    15     2     3   ar
    16     3     4   ar
    17     4     5   ar
    18     5     7    1
    19     7     8   ar
    20     8     9   ar
    21     9    10   ar
    22    10    11   ar
    23    11    12   ar
    24    12    13   ar
    25    13    14   ar
    26    14    15   ar
    27     5     6   ar
    28    21    19    1
    29    28    23   ar
    30     6     1   ar
    31    15     7   ar
    32    14     9   ar
@<TRIPOS>MOLECULE
*****
 28 32 0 0 0
SMALL
GASTEIGER

@<TRIPOS>ATOM
      1 C          63.5381   86.5202   14.4078 C.ar    1  UNL1        0.0734
      2 C          63.2069   86.5818   15.8694 C.ar    1  UNL1        0.1137
      3 N          63.3217   87.8810   16.6103 N.ar    1  UNL1       -0.2409
      4 C          63.7678   89.1185   15.8895 C.ar    1  UNL1        0.1009
      5 C          64.0990   89.0569   14.4278 C.ar    1  UNL1        0.0442
      6 C          63.9842   87.7577   13.6870 C.ar    1  UNL1        0.0200
      7 C          64.5450   90.2945   13.7070 C.ar    1  UNL1        0.1122
      8 N          64.1803   90.6770   12.3033 N.ar    1  UNL1       -0.2383
      9 C          64.8440   91.9857   11.9921 C.ar    1  UNL1        0.0879
     10 C          64.8428   92.8443   10.7621 C.ar    1  UNL1        0.0196
     11 C          65.6165   94.1291   10.7437 C.ar    1  UNL1        0.0016
     12 C          66.3914   94.5555   11.9552 C.ar    1  UNL1        0.0006
     13 C          66.3926   93.6969   13.1852 C.ar    1  UNL1        0.0080
     14 C          65.6189   92.4120   13.2036 C.ar    1  UNL1        0.0485
     15 S          65.4341   91.3668   14.2635 S.2     1  UNL1       -0.0664
     16 O          65.7562   84.5059   14.5595 O.2     1  UNL1       -0.2745
     17 C          64.5324   84.2138   13.7427 C.2     1  UNL1        0.2292
     18 N          63.4233   85.2210   13.6668 N.am    1  UNL1       -0.2528
     19 C          64.4176   82.9146   13.0018 C.3     1  UNL1        0.0771
     20 C          64.6346   82.1050   11.7579 C.3     1  UNL1        0.0096
     21 C          64.0018   81.4740   12.9625 C.3     1  UNL1        0.0096
     22 C          62.1996   84.9289   12.8501 C.3     1  UNL1        0.1263
     23 C          62.0671   85.4970   11.4681 C.ar    1  UNL1        0.0172
     24 C          62.8495   84.9026   10.3347 C.ar    1  UNL1        0.0005
     25 C          62.7169   85.4706    8.9528 C.ar    1  UNL1        0.0204
     26 C          61.8020   86.6330    8.7042 C.ar    1  UNL1        0.0989
     27 N          61.0196   87.2273    9.8376 N.ar    1  UNL1       -0.2426
     28 C          61.1521   86.6593   11.2195 C.ar    1  UNL1        0.0962
@<TRIPOS>BOND
     1    16    17    2
     2    17    19    1
     3    19    20    1
     4    20    21    1
     5    17    18   am
     6    18    22    1
     7    22    23    1
     8    23    24   ar
     9    24    25   ar
    10    25    26   ar
    11    26    27   ar
    12    27    28   ar
    13    18     1    1
    14     1     2   ar
    15     2     3   ar
    16     3     4   ar
    17     4     5   ar
    18     5     7    1
    19     7     8   ar
    20     8     9   ar
    21     9    10   ar
    22    10    11   ar
    23    11    12   ar
    24    12    13   ar
    25    13    14   ar
    26    14    15   ar
    27     5     6   ar
    28    21    19    1
    29    28    23   ar
    30     6     1   ar
    31    15     7   ar
    32    14     9   ar
@<TRIPOS>MOLECULE
*****
 28 32 0 0 0
SMALL
GASTEIGER

@<TRIPOS>ATOM
      1 C          62.0990   86.5189   11.4493 C.ar    1  UNL1        0.0734
      2 C          60.7442   86.8993   10.9300 C.ar    1  UNL1        0.1137
      3 N          60.3208   88.3383   10.9225 N.ar    1  UNL1       -0.2409
      4 C          61.2522   89.3968   11.4344 C.ar    1  UNL1        0.1009
      5 C          62.6070   89.0164   11.9537 C.ar    1  UNL1        0.0442
      6 C          63.0304   87.5775   11.9612 C.ar    1  UNL1        0.0200
      7 C          63.5383   90.0750   12.4656 C.ar    1  UNL1        0.1122
      8 N          64.0561   91.2464   11.6848 N.ar    1  UNL1       -0.2383
      9 C          64.9533   92.0433   12.5848 C.ar    1  UNL1        0.0879
     10 C          65.7415   93.2995   12.3596 C.ar    1  UNL1        0.0196
     11 C          66.5664   93.8767   13.4714 C.ar    1  UNL1        0.0016
     12 C          66.6031   93.1979   14.8085 C.ar    1  UNL1        0.0006
     13 C          65.8149   91.9417   15.0337 C.ar    1  UNL1        0.0080
     14 C          64.9900   91.3645   13.9219 C.ar    1  UNL1        0.0485
     15 S          64.1155   90.1480   13.8482 S.2     1  UNL1       -0.0664
     16 O          63.2902   85.2931    8.9839 O.2     1  UNL1       -0.2745
     17 C          63.1181   84.4670   10.2241 C.2     1  UNL1        0.2292
     18 N          62.5225   85.0799   11.4568 N.am    1  UNL1       -0.2528
     19 C          63.5416   83.0281   10.2315 C.3     1  UNL1        0.0771
     20 C          64.6077   81.9868   10.0610 C.3     1  UNL1        0.0096
     21 C          63.2089   81.5770   10.4149 C.3     1  UNL1        0.0096
     22 C          62.3504   84.2539   12.6969 C.3     1  UNL1        0.1263
     23 C          62.7566   84.8088   14.0301 C.ar    1  UNL1        0.0172
     24 C          64.0849   85.4878   14.1866 C.ar    1  UNL1        0.0005
     25 C          64.4910   86.0426   15.5197 C.ar    1  UNL1        0.0204
     26 C          63.5689   85.9184   16.6963 C.ar    1  UNL1        0.0989
     27 N          62.2406   85.2394   16.5397 N.ar    1  UNL1       -0.2426
     28 C          61.8344   84.6846   15.2066 C.ar    1  UNL1        0.0962
@<TRIPOS>BOND
     1    16    17    2
     2    17    19    1
     3    19    20    1
     4    20    21    1
     5    17    18   am
     6    18    22    1
     7    22    23    1
     8    23    24   ar
     9    24    25   ar
    10    25    26   ar
    11    26    27   ar
    12    27    28   ar
    13    18     1    1
    14     1     2   ar
    15     2     3   ar
    16     3     4   ar
    17     4     5   ar
    18     5     7    1
    19     7     8   ar
    20     8     9   ar
    21     9    10   ar
    22    10    11   ar
    23    11    12   ar
    24    12    13   ar
    25    13    14   ar
    26    14    15   ar
    27     5     6   ar
    28    21    19    1
    29    28    23   ar
    30     6     1   ar
    31    15     7   ar
    32    14     9   ar
@<TRIPOS>MOLECULE
*****
 28 32 0 0 0
SMALL
GASTEIGER

@<TRIPOS>ATOM
      1 C          64.9738   91.0619   14.6507 C.ar    1  UNL1        0.0734
      2 C          64.2529   90.9411   15.9606 C.ar    1  UNL1        0.1137
      3 N          62.9300   90.2372   16.0264 N.ar    1  UNL1       -0.2409
      4 C          62.3279   89.6543   14.7824 C.ar    1  UNL1        0.1009
      5 C          63.0487   89.7751   13.4725 C.ar    1  UNL1        0.0442
      6 C          64.3716   90.4789   13.4067 C.ar    1  UNL1        0.0200
      7 C          62.4466   89.1921   12.2285 C.ar    1  UNL1        0.1122
      8 N          62.6286   87.7872   11.7357 N.ar    1  UNL1       -0.2383
      9 C          61.8512   87.6385   10.4615 C.ar    1  UNL1        0.0879
     10 C          61.6610   86.4770    9.5315 C.ar    1  UNL1        0.0196
     11 C          60.8084   86.6288    8.3068 C.ar    1  UNL1        0.0016
     12 C          60.1459   87.9419    8.0121 C.ar    1  UNL1        0.0006
     13 C          60.3361   89.1033    8.9420 C.ar    1  UNL1        0.0080
     14 C          61.1888   88.9516   10.1667 C.ar    1  UNL1        0.0485
     15 S          61.5568   89.9118   11.2588 S.2     1  UNL1       -0.0664
     16 O          65.9299   92.6801   16.9890 O.2     1  UNL1       -0.2745
     17 C          66.7749   92.5749   15.7540 C.2     1  UNL1        0.2292
     18 N          66.2968   91.7658   14.5849 N.am    1  UNL1       -0.2528
     19 C          68.0978   93.2787   15.6882 C.3     1  UNL1        0.0771
     20 C          69.5649   93.2603   15.3765 C.3     1  UNL1        0.0096
     21 C          68.9221   94.5162   15.8859 C.3     1  UNL1        0.0096
     22 C          67.1417   91.6605   13.3500 C.3     1  UNL1        0.1263
     23 C          66.9702   92.6517   12.2372 C.ar    1  UNL1        0.0172
     24 C          67.4717   92.3285   10.8610 C.ar    1  UNL1        0.0005
     25 C          67.3003   93.3197    9.7483 C.ar    1  UNL1        0.0204
     26 C          66.6274   94.6341   10.0119 C.ar    1  UNL1        0.0989
     27 N          66.1260   94.9574   11.3881 N.ar    1  UNL1       -0.2426
     28 C          66.2974   93.9662   12.5007 C.ar    1  UNL1        0.0962
@<TRIPOS>BOND
     1    16    17    2
     2    17    19    1
     3    19    20    1
     4    20    21    1
     5    17    18   am
     6    18    22    1
     7    22    23    1
     8    23    24   ar
     9    24    25   ar
    10    25    26   ar
    11    26    27   ar
    12    27    28   ar
    13    18     1    1
    14     1     2   ar
    15     2     3   ar
    16     3     4   ar
    17     4     5   ar
    18     5     7    1
    19     7     8   ar
    20     8     9   ar
    21     9    10   ar
    22    10    11   ar
    23    11    12   ar
    24    12    13   ar
    25    13    14   ar
    26    14    15   ar
    27     5     6   ar
    28    21    19    1
    29    28    23   ar
    30     6     1   ar
    31    15     7   ar
    32    14     9   ar
@<TRIPOS>MOLECULE
*****
 28 32 0 0 0
SMALL
GASTEIGER

@<TRIPOS>ATOM
      1 C          63.5313   86.5461   15.3493 C.ar    1  UNL1        0.0734
      2 C          63.1087   86.8313   16.7599 C.ar    1  UNL1        0.1137
      3 N          63.1364   88.2375   17.2814 N.ar    1  UNL1       -0.2409
      4 C          63.5868   89.3584   16.3922 C.ar    1  UNL1        0.1009
      5 C          64.0095   89.0732   14.9815 C.ar    1  UNL1        0.0442
      6 C          63.9818   87.6670   14.4601 C.ar    1  UNL1        0.0200
      7 C          64.4599   90.1941   14.0923 C.ar    1  UNL1        0.1122
      8 N          64.0673   90.3943   12.6585 N.ar    1  UNL1       -0.2383
      9 C          64.7468   91.6355   12.1608 C.ar    1  UNL1        0.0879
     10 C          64.7306   92.3228   10.8277 C.ar    1  UNL1        0.0196
     11 C          65.5269   93.5769   10.6207 C.ar    1  UNL1        0.0016
     12 C          66.3395   94.1439   11.7470 C.ar    1  UNL1        0.0006
     13 C          66.3557   93.4566   13.0801 C.ar    1  UNL1        0.0080
     14 C          65.5593   92.2024   13.2871 C.ar    1  UNL1        0.0485
     15 S          65.3820   91.3116   14.4808 S.2     1  UNL1       -0.0664
     16 O          61.3313   84.6823   16.1775 O.2     1  UNL1       -0.2745
     17 C          62.4036   84.2080   15.2419 C.2     1  UNL1        0.2292
     18 N          63.5036   85.1399   14.8278 N.am    1  UNL1       -0.2528
     19 C          62.3758   82.8019   14.7205 C.3     1  UNL1        0.0771
     20 C          63.0686   81.4952   14.4704 C.3     1  UNL1        0.0096
     21 C          61.6348   81.6730   14.0673 C.3     1  UNL1        0.0096
     22 C          64.5758   84.6657   13.8922 C.3     1  UNL1        0.1263
     23 C          64.2279   84.2861   12.4833 C.ar    1  UNL1        0.0172
     24 C          63.1797   85.0562   11.7362 C.ar    1  UNL1        0.0005
     25 C          62.8318   84.6766   10.3274 C.ar    1  UNL1        0.0204
     26 C          63.5321   83.5270    9.6657 C.ar    1  UNL1        0.0989
     27 N          64.5803   82.7569   10.4128 N.ar    1  UNL1       -0.2426
     28 C          64.9282   83.1365   11.8216 C.ar    1  UNL1        0.0962
@<TRIPOS>BOND
     1    16    17    2
     2    17    19    1
     3    19    20    1
     4    20    21    1
     5    17    18   am
     6    18    22    1
     7    22    23    1
     8    23    24   ar
     9    24    25   ar
    10    25    26   ar
    11    26    27   ar
    12    27    28   ar
    13    18     1    1
    14     1     2   ar
    15     2     3   ar
    16     3     4   ar
    17     4     5   ar
    18     5     7    1
    19     7     8   ar
    20     8     9   ar
    21     9    10   ar
    22    10    11   ar
    23    11    12   ar
    24    12    13   ar
    25    13    14   ar
    26    14    15   ar
    27     5     6   ar
    28    21    19    1
    29    28    23   ar
    30     6     1   ar
    31    15     7   ar
    32    14     9   ar
@<TRIPOS>MOLECULE
*****
 28 32 0 0 0
SMALL
GASTEIGER

@<TRIPOS>ATOM
      1 C          63.7109   86.2363   14.5183 C.ar    1  UNL1        0.0734
      2 C          63.1601   86.2207   15.9133 C.ar    1  UNL1        0.1137
      3 N          63.0904   87.4920   16.7063 N.ar    1  UNL1       -0.2409
      4 C          63.5714   88.7789   16.1042 C.ar    1  UNL1        0.1009
      5 C          64.1222   88.7945   14.7091 C.ar    1  UNL1        0.0442
      6 C          64.1920   87.5232   13.9161 C.ar    1  UNL1        0.0200
      7 C          64.6032   90.0813   14.1070 C.ar    1  UNL1        0.1122
      8 N          64.3383   90.5536   12.7081 N.ar    1  UNL1       -0.2383
      9 C          65.0050   91.8860   12.5346 C.ar    1  UNL1        0.0879
     10 C          65.0831   92.8248   11.3674 C.ar    1  UNL1        0.0196
     11 C          65.8382   94.1149   11.4917 C.ar    1  UNL1        0.0016
     12 C          66.5152   94.4662   12.7834 C.ar    1  UNL1        0.0006
     13 C          66.4371   93.5274   13.9506 C.ar    1  UNL1        0.0080
     14 C          65.6820   92.2373   13.8262 C.ar    1  UNL1        0.0485
     15 S          65.4337   91.1220   14.7980 S.2     1  UNL1       -0.0664
     16 O          62.8921   86.2219   11.6322 O.2     1  UNL1       -0.2745
     17 C          63.3713   84.9577   12.2822 C.2     1  UNL1        0.2292
     18 N          63.7807   84.9649   13.7252 N.am    1  UNL1       -0.2528
     19 C          63.4410   83.6865   11.4891 C.3     1  UNL1        0.0771
     20 C          62.7783   82.4533   10.9506 C.3     1  UNL1        0.0096
     21 C          64.2247   82.7177   10.6540 C.3     1  UNL1        0.0096
     22 C          64.2599   83.7009   14.3752 C.3     1  UNL1        0.1263
     23 C          63.4527   82.4423   14.2535 C.ar    1  UNL1        0.0172
     24 C          61.9590   82.4942   14.3796 C.ar    1  UNL1        0.0005
     25 C          61.1519   81.2358   14.2579 C.ar    1  UNL1        0.0204
     26 C          61.8386   79.9254   14.0102 C.ar    1  UNL1        0.0989
     27 N          63.3324   79.8735   13.8842 N.ar    1  UNL1       -0.2426
     28 C          64.1394   81.1320   14.0059 C.ar    1  UNL1        0.0962
@<TRIPOS>BOND
     1    16    17    2
     2    17    19    1
     3    19    20    1
     4    20    21    1
     5    17    18   am
     6    18    22    1
     7    22    23    1
     8    23    24   ar
     9    24    25   ar
    10    25    26   ar
    11    26    27   ar
    12    27    28   ar
    13    18     1    1
    14     1     2   ar
    15     2     3   ar
    16     3     4   ar
    17     4     5   ar
    18     5     7    1
    19     7     8   ar
    20     8     9   ar
    21     9    10   ar
    22    10    11   ar
    23    11    12   ar
    24    12    13   ar
    25    13    14   ar
    26    14    15   ar
    27     5     6   ar
    28    21    19    1
    29    28    23   ar
    30     6     1   ar
    31    15     7   ar
    32    14     9   ar
