@<TRIPOS>MOLECULE
*****
 33 37 0 0 0
SMALL
GASTEIGER

@<TRIPOS>ATOM
      1 N          63.6145   89.2430   12.3300 N.ar    1  UNL1       -0.2562
      2 C          62.6857   89.1295   11.1578 C.ar    1  UNL1        0.1851
      3 N          62.0786   87.8033   10.8075 N.ar    1  UNL1       -0.2244
      4 C          62.4005   86.5906   11.6296 C.ar    1  UNL1        0.0941
      5 C          61.9568   85.1615   11.5264 C.ar    1  UNL1        0.0263
      6 C          62.6115   84.3917   12.6349 C.ar    1  UNL1        0.0312
      7 S          63.4599   85.3451   13.4232 S.2     1  UNL1       -0.0807
      8 C          63.3294   86.7041   12.8018 C.ar    1  UNL1        0.1036
      9 C          63.9364   88.0303   13.1521 C.ar    1  UNL1        0.2733
     10 O          64.8654   88.1439   14.3243 O.2     1  UNL1       -0.2660
     11 C          62.4469   82.9259   12.9073 C.ar    1  UNL1        0.0061
     12 C          61.7791   82.4680   14.1699 C.ar    1  UNL1        0.0014
     13 C          61.6145   81.0021   14.4423 C.ar    1  UNL1        0.0114
     14 C          62.1177   79.9941   13.4520 C.ar    1  UNL1        0.0577
     15 CL         61.9530   78.5283   13.7244 Cl      1  UNL1       -0.0822
     16 C          62.7855   80.4519   12.1893 C.ar    1  UNL1        0.0114
     17 C          62.9501   81.9178   11.9170 C.ar    1  UNL1        0.0014
     18 C          65.2122   92.1932   14.4499 C.ar    1  UNL1        0.1738
     19 C          64.6051   90.8671   14.0996 C.ar    1  UNL1        0.0577
     20 C          64.2217   90.5693   12.6803 C.ar    1  UNL1        0.0715
     21 C          64.4452   91.5975   11.6115 C.ar    1  UNL1        0.0210
     22 C          65.0523   92.9238   11.9618 C.ar    1  UNL1        0.0415
     23 C          65.4358   93.2216   13.3810 C.ar    1  UNL1        0.1724
     24 C          67.0396   92.6688   16.2344 C.3     1  UNL1        0.2526
     25 O          65.5957   92.4910   15.8692 O.3     1  UNL1       -0.4683
     26 O          66.0429   94.5477   13.7314 O.3     1  UNL1       -0.4709
     27 C          66.8092   95.3184   12.6975 C.3     1  UNL1        0.2228
     28 C          66.0783   96.1708   11.7030 C.3     1  UNL1        0.1200
     29 N          66.3671   96.0288   10.2379 N.3     1  UNL1       -0.2696
     30 C          67.3025   95.0348    9.6159 C.3     1  UNL1        0.0722
     31 C          67.2847   95.2475    8.1312 C.3     1  UNL1        0.0188
     32 C          66.3383   96.3731    7.8356 C.3     1  UNL1        0.0188
     33 C          65.7712   96.8559    9.1376 C.3     1  UNL1        0.0722
@<TRIPOS>BOND
     1    24    25    1
     2    25    18    1
     3    18    19   ar
     4    19    20   ar
     5    20     1    1
     6     1     2   ar
     7     2     3   ar
     8     3     4   ar
     9     4     5   ar
    10     5     6   ar
    11     6    11    1
    12    11    12   ar
    13    12    13   ar
    14    13    14   ar
    15    14    15    1
    16    14    16   ar
    17    16    17   ar
    18     6     7   ar
    19     7     8   ar
    20     8     9   ar
    21     9    10    2
    22    20    21   ar
    23    21    22   ar
    24    22    23   ar
    25    23    26    1
    26    26    27    1
    27    27    28    1
    28    28    29    1
    29    29    30    1
    30    30    31    1
    31    31    32    1
    32    32    33    1
    33    23    18   ar
    34    33    29    1
    35     9     1   ar
    36     8     4   ar
    37    17    11   ar
@<TRIPOS>MOLECULE
*****
 33 37 0 0 0
SMALL
GASTEIGER

@<TRIPOS>ATOM
      1 N          59.5002   90.6434    5.6025 N.ar    1  UNL1       -0.2562
      2 C          58.1447   91.1460    5.2026 C.ar    1  UNL1        0.1851
      3 N          58.0023   92.0628    4.0239 N.ar    1  UNL1       -0.2244
      4 C          59.2156   92.4771    3.2452 C.ar    1  UNL1        0.0941
      5 C          59.3847   93.3633    2.0469 C.ar    1  UNL1        0.0263
      6 C          60.8448   93.4084    1.7062 C.ar    1  UNL1        0.0312
      7 S          61.5780   92.5501    2.6939 S.2     1  UNL1       -0.0807
      8 C          60.5711   91.9745    3.6451 C.ar    1  UNL1        0.1036
      9 C          60.7134   91.0577    4.8237 C.ar    1  UNL1        0.2733
     10 O          62.0689   90.5551    5.2237 O.2     1  UNL1       -0.2660
     11 C          61.4631   94.1769    0.5761 C.ar    1  UNL1        0.0061
     12 C          61.6224   93.5338   -0.7697 C.ar    1  UNL1        0.0014
     13 C          62.2407   94.3024   -1.8997 C.ar    1  UNL1        0.0114
     14 C          62.6998   95.7140   -1.6841 C.ar    1  UNL1        0.0577
     15 CL         63.3181   96.4825   -2.8142 Cl      1  UNL1       -0.0822
     16 C          62.5405   96.3571   -0.3384 C.ar    1  UNL1        0.0114
     17 C          61.9221   95.5886    0.7917 C.ar    1  UNL1        0.0014
     18 C          60.2220   89.3563    9.2865 C.ar    1  UNL1        0.1738
     19 C          60.0797   90.2731    8.1078 C.ar    1  UNL1        0.0577
     20 C          59.6425   89.7266    6.7811 C.ar    1  UNL1        0.0715
     21 C          59.3478   88.2634    6.6330 C.ar    1  UNL1        0.0210
     22 C          59.4902   87.3465    7.8117 C.ar    1  UNL1        0.0415
     23 C          59.9273   87.8930    9.1384 C.ar    1  UNL1        0.1724
     24 C          59.6521   90.1206   11.7033 C.3     1  UNL1        0.2526
     25 O          60.6592   89.9028   10.6133 O.3     1  UNL1       -0.4683
     26 O          60.0697   86.9763   10.3171 O.3     1  UNL1       -0.4709
     27 C          61.4340   86.6000   10.8141 C.3     1  UNL1        0.2228
     28 C          62.2938   85.6685   10.0123 C.3     1  UNL1        0.1200
     29 N          62.9370   84.4855   10.6733 N.3     1  UNL1       -0.2696
     30 C          62.7419   84.0573   12.0975 C.3     1  UNL1        0.0722
     31 C          63.5725   82.8302   12.3305 C.3     1  UNL1        0.0188
     32 C          64.2808   82.5000   11.0503 C.3     1  UNL1        0.0188
     33 C          63.8881   83.5230   10.0260 C.3     1  UNL1        0.0722
@<TRIPOS>BOND
     1    24    25    1
     2    25    18    1
     3    18    19   ar
     4    19    20   ar
     5    20     1    1
     6     1     2   ar
     7     2     3   ar
     8     3     4   ar
     9     4     5   ar
    10     5     6   ar
    11     6    11    1
    12    11    12   ar
    13    12    13   ar
    14    13    14   ar
    15    14    15    1
    16    14    16   ar
    17    16    17   ar
    18     6     7   ar
    19     7     8   ar
    20     8     9   ar
    21     9    10    2
    22    20    21   ar
    23    21    22   ar
    24    22    23   ar
    25    23    26    1
    26    26    27    1
    27    27    28    1
    28    28    29    1
    29    29    30    1
    30    30    31    1
    31    31    32    1
    32    32    33    1
    33    23    18   ar
    34    33    29    1
    35     9     1   ar
    36     8     4   ar
    37    17    11   ar
@<TRIPOS>MOLECULE
*****
 33 37 0 0 0
SMALL
GASTEIGER

@<TRIPOS>ATOM
      1 N          63.2594   87.6309   12.8093 N.ar    1  UNL1       -0.2562
      2 C          62.5447   87.8081   11.5026 C.ar    1  UNL1        0.1851
      3 N          62.1802   86.6089   10.6783 N.ar    1  UNL1       -0.2244
      4 C          62.5306   85.2326   11.1610 C.ar    1  UNL1        0.0941
      5 C          62.3020   83.8732   10.5697 C.ar    1  UNL1        0.0263
      6 C          62.8755   82.8559   11.5110 C.ar    1  UNL1        0.0312
      7 S          63.4585   83.5865   12.6841 S.2     1  UNL1       -0.0807
      8 C          63.2454   85.0555   12.4678 C.ar    1  UNL1        0.1036
      9 C          63.6098   86.2546   13.2919 C.ar    1  UNL1        0.2733
     10 O          64.3246   86.0775   14.5987 O.2     1  UNL1       -0.2660
     11 C          62.8673   81.3689   11.3139 C.ar    1  UNL1        0.0061
     12 C          63.0802   80.7926    9.9455 C.ar    1  UNL1        0.0014
     13 C          63.0721   79.3055    9.7484 C.ar    1  UNL1        0.0114
     14 C          62.8511   78.3949   10.9197 C.ar    1  UNL1        0.0577
     15 CL         62.8430   76.9079   10.7225 Cl      1  UNL1       -0.0822
     16 C          62.6382   78.9712   12.2881 C.ar    1  UNL1        0.0114
     17 C          62.6464   80.4582   12.4851 C.ar    1  UNL1        0.0014
     18 C          64.4087   91.3022   13.7846 C.ar    1  UNL1        0.1738
     19 C          64.0442   90.1030   12.9604 C.ar    1  UNL1        0.0577
     20 C          63.6239   88.8301   13.6335 C.ar    1  UNL1        0.0715
     21 C          63.5681   88.7563   15.1305 C.ar    1  UNL1        0.0210
     22 C          63.9325   89.9555   15.9548 C.ar    1  UNL1        0.0415
     23 C          64.3528   91.2284   15.2817 C.ar    1  UNL1        0.1724
     24 C          64.9217   92.6375   11.6158 C.3     1  UNL1        0.2526
     25 O          64.8290   92.5752   13.1115 O.3     1  UNL1       -0.4683
     26 O          64.7173   92.4276   16.1058 O.3     1  UNL1       -0.4709
     27 C          66.1582   92.7322   16.3905 C.3     1  UNL1        0.2228
     28 C          66.9750   93.4960   15.3908 C.3     1  UNL1        0.1200
     29 N          68.0242   92.7905   14.5837 N.3     1  UNL1       -0.2696
     30 C          69.4824   92.6972   14.9224 C.3     1  UNL1        0.0722
     31 C          70.1588   91.9035   13.8442 C.3     1  UNL1        0.0188
     32 C          69.1187   91.5062   12.8393 C.3     1  UNL1        0.0188
     33 C          67.7993   92.0545   13.2963 C.3     1  UNL1        0.0722
@<TRIPOS>BOND
     1    24    25    1
     2    25    18    1
     3    18    19   ar
     4    19    20   ar
     5    20     1    1
     6     1     2   ar
     7     2     3   ar
     8     3     4   ar
     9     4     5   ar
    10     5     6   ar
    11     6    11    1
    12    11    12   ar
    13    12    13   ar
    14    13    14   ar
    15    14    15    1
    16    14    16   ar
    17    16    17   ar
    18     6     7   ar
    19     7     8   ar
    20     8     9   ar
    21     9    10    2
    22    20    21   ar
    23    21    22   ar
    24    22    23   ar
    25    23    26    1
    26    26    27    1
    27    27    28    1
    28    28    29    1
    29    29    30    1
    30    30    31    1
    31    31    32    1
    32    32    33    1
    33    23    18   ar
    34    33    29    1
    35     9     1   ar
    36     8     4   ar
    37    17    11   ar
@<TRIPOS>MOLECULE
*****
 33 37 0 0 0
SMALL
GASTEIGER

@<TRIPOS>ATOM
      1 N          64.1254   87.5751   14.2480 N.ar    1  UNL1       -0.2562
      2 C          64.1875   86.9634   15.6161 C.ar    1  UNL1        0.1851
      3 N          63.9876   85.4866   15.7873 N.ar    1  UNL1       -0.2244
      4 C          63.7255   84.6217   14.5901 C.ar    1  UNL1        0.0941
      5 C          63.4911   83.1468   14.4496 C.ar    1  UNL1        0.0263
      6 C          63.2840   82.8470   12.9945 C.ar    1  UNL1        0.0312
      7 S          63.3905   84.1366   12.2358 S.2     1  UNL1       -0.0807
      8 C          63.6634   85.2334   13.2220 C.ar    1  UNL1        0.1036
      9 C          63.8633   86.7102   13.0509 C.ar    1  UNL1        0.2733
     10 O          63.8011   87.3219   11.6828 O.2     1  UNL1       -0.2660
     11 C          63.0173   81.4950   12.4021 C.ar    1  UNL1        0.0061
     12 C          62.6057   80.3562   13.2873 C.ar    1  UNL1        0.0014
     13 C          62.3390   79.0042   12.6948 C.ar    1  UNL1        0.0114
     14 C          62.4838   78.7910   11.2171 C.ar    1  UNL1        0.0577
     15 CL         62.2171   77.4390   10.6247 Cl      1  UNL1       -0.0822
     16 C          62.8954   79.9298   10.3319 C.ar    1  UNL1        0.0114
     17 C          63.1621   81.2818   10.9244 C.ar    1  UNL1        0.0014
     18 C          65.4356   91.2749   14.8356 C.ar    1  UNL1        0.1738
     19 C          65.2357   89.7981   15.0066 C.ar    1  UNL1        0.0577
     20 C          64.3253   89.0519   14.0769 C.ar    1  UNL1        0.0715
     21 C          63.6149   89.7824   12.9762 C.ar    1  UNL1        0.0210
     22 C          63.8148   91.2592   12.8051 C.ar    1  UNL1        0.0415
     23 C          64.7252   92.0054   13.7348 C.ar    1  UNL1        0.1724
     24 C          67.8314   91.9673   15.5640 C.3     1  UNL1        0.2526
     25 O          66.3460   92.0212   15.7653 O.3     1  UNL1       -0.4683
     26 O          64.9251   93.4821   13.5637 O.3     1  UNL1       -0.4709
     27 C          66.2148   94.0044   13.0035 C.3     1  UNL1        0.2228
     28 C          66.2618   94.5402   11.6032 C.3     1  UNL1        0.1200
     29 N          67.0815   93.8407   10.5597 N.3     1  UNL1       -0.2696
     30 C          67.6382   94.4619    9.3131 C.3     1  UNL1        0.0722
     31 C          68.3891   93.4023    8.5627 C.3     1  UNL1        0.0188
     32 C          68.2965   92.1262    9.3455 C.3     1  UNL1        0.0188
     33 C          67.4884   92.3971   10.5797 C.3     1  UNL1        0.0722
@<TRIPOS>BOND
     1    24    25    1
     2    25    18    1
     3    18    19   ar
     4    19    20   ar
     5    20     1    1
     6     1     2   ar
     7     2     3   ar
     8     3     4   ar
     9     4     5   ar
    10     5     6   ar
    11     6    11    1
    12    11    12   ar
    13    12    13   ar
    14    13    14   ar
    15    14    15    1
    16    14    16   ar
    17    16    17   ar
    18     6     7   ar
    19     7     8   ar
    20     8     9   ar
    21     9    10    2
    22    20    21   ar
    23    21    22   ar
    24    22    23   ar
    25    23    26    1
    26    26    27    1
    27    27    28    1
    28    28    29    1
    29    29    30    1
    30    30    31    1
    31    31    32    1
    32    32    33    1
    33    23    18   ar
    34    33    29    1
    35     9     1   ar
    36     8     4   ar
    37    17    11   ar
@<TRIPOS>MOLECULE
*****
 33 37 0 0 0
SMALL
GASTEIGER

@<TRIPOS>ATOM
      1 N          63.2473   86.5975   15.4104 N.ar    1  UNL1       -0.2562
      2 C          62.8238   85.7871   16.5993 C.ar    1  UNL1        0.1851
      3 N          62.5752   84.3149   16.4536 N.ar    1  UNL1       -0.2244
      4 C          62.7502   83.6534   15.1187 C.ar    1  UNL1        0.0941
      5 C          62.5789   82.2314   14.6732 C.ar    1  UNL1        0.0263
      6 C          62.8965   82.1631   13.2088 C.ar    1  UNL1        0.0312
      7 S          63.2641   83.5428   12.7493 S.2     1  UNL1       -0.0807
      8 C          63.1736   84.4639   13.9297 C.ar    1  UNL1        0.1036
      9 C          63.4222   85.9360   14.0755 C.ar    1  UNL1        0.2733
     10 O          63.8457   86.7465   12.8865 O.2     1  UNL1       -0.2660
     11 C          62.8540   80.9312   12.3540 C.ar    1  UNL1        0.0061
     12 C          63.1320   81.0290   10.8832 C.ar    1  UNL1        0.0014
     13 C          63.0894   79.7971   10.0284 C.ar    1  UNL1        0.0114
     14 C          62.7689   78.4675   10.6443 C.ar    1  UNL1        0.0577
     15 CL         62.7264   77.2356    9.7894 Cl      1  UNL1       -0.0822
     16 C          62.4909   78.3697   12.1151 C.ar    1  UNL1        0.0114
     17 C          62.5335   79.6016   12.9699 C.ar    1  UNL1        0.0014
     18 C          64.1730   90.3511   14.5139 C.ar    1  UNL1        0.1738
     19 C          63.9245   88.8790   14.3682 C.ar    1  UNL1        0.0577
     20 C          63.4958   88.0696   15.5561 C.ar    1  UNL1        0.0715
     21 C          63.3158   88.7322   16.8896 C.ar    1  UNL1        0.0210
     22 C          63.5644   90.2044   17.0354 C.ar    1  UNL1        0.0415
     23 C          63.9930   91.0138   15.8475 C.ar    1  UNL1        0.1724
     24 C          63.8192   91.0896   12.0482 C.3     1  UNL1        0.2526
     25 O          64.6017   91.1605   13.3259 O.3     1  UNL1       -0.4683
     26 O          64.2416   92.4858   15.9931 O.3     1  UNL1       -0.4709
     27 C          65.5131   92.9731   16.6223 C.3     1  UNL1        0.2228
     28 C          66.8323   92.6796   15.9716 C.3     1  UNL1        0.1200
     29 N          66.9738   92.7854   14.4820 N.3     1  UNL1       -0.2696
     30 C          66.3989   93.8671   13.6164 C.3     1  UNL1        0.0722
     31 C          66.7849   93.5782   12.1959 C.3     1  UNL1        0.0188
     32 C          67.5982   92.3180   12.1837 C.3     1  UNL1        0.0188
     33 C          67.7150   91.8280   13.5966 C.3     1  UNL1        0.0722
@<TRIPOS>BOND
     1    24    25    1
     2    25    18    1
     3    18    19   ar
     4    19    20   ar
     5    20     1    1
     6     1     2   ar
     7     2     3   ar
     8     3     4   ar
     9     4     5   ar
    10     5     6   ar
    11     6    11    1
    12    11    12   ar
    13    12    13   ar
    14    13    14   ar
    15    14    15    1
    16    14    16   ar
    17    16    17   ar
    18     6     7   ar
    19     7     8   ar
    20     8     9   ar
    21     9    10    2
    22    20    21   ar
    23    21    22   ar
    24    22    23   ar
    25    23    26    1
    26    26    27    1
    27    27    28    1
    28    28    29    1
    29    29    30    1
    30    30    31    1
    31    31    32    1
    32    32    33    1
    33    23    18   ar
    34    33    29    1
    35     9     1   ar
    36     8     4   ar
    37    17    11   ar
@<TRIPOS>MOLECULE
*****
 33 37 0 0 0
SMALL
GASTEIGER

@<TRIPOS>ATOM
      1 N          60.0060   88.9661    7.1797 N.ar    1  UNL1       -0.2562
      2 C          59.2635   87.6648    7.1078 C.ar    1  UNL1        0.1851
      3 N          59.5017   86.6071    8.1445 N.ar    1  UNL1       -0.2244
      4 C          60.4824   86.8508    9.2530 C.ar    1  UNL1        0.0941
      5 C          60.9223   86.0017   10.4086 C.ar    1  UNL1        0.0263
      6 C          61.9366   86.7783   11.1947 C.ar    1  UNL1        0.0312
      7 S          62.1237   88.1073   10.5249 S.2     1  UNL1       -0.0807
      8 C          61.2250   88.1522    9.3248 C.ar    1  UNL1        0.1036
      9 C          60.9867   89.2098    8.2882 C.ar    1  UNL1        0.2733
     10 O          61.7292   90.5112    8.3601 O.2     1  UNL1       -0.2660
     11 C          62.6404   86.3083   12.4332 C.ar    1  UNL1        0.0061
     12 C          63.5061   87.2561   13.2093 C.ar    1  UNL1        0.0014
     13 C          64.2099   86.7860   14.4478 C.ar    1  UNL1        0.0114
     14 C          64.0479   85.3683   14.9102 C.ar    1  UNL1        0.0577
     15 CL         64.7517   84.8984   16.1487 Cl      1  UNL1       -0.0822
     16 C          63.1822   84.4206   14.1342 C.ar    1  UNL1        0.0114
     17 C          62.4785   84.8906   12.8956 C.ar    1  UNL1        0.0014
     18 C          60.6720   91.5905    4.2781 C.ar    1  UNL1        0.1738
     19 C          60.9101   90.5328    5.3147 C.ar    1  UNL1        0.0577
     20 C          59.7678   90.0239    6.1431 C.ar    1  UNL1        0.0715
     21 C          58.3875   90.5726    5.9349 C.ar    1  UNL1        0.0210
     22 C          58.1493   91.6303    4.8982 C.ar    1  UNL1        0.0415
     23 C          59.2916   92.1393    4.0699 C.ar    1  UNL1        0.1724
     24 C          63.0354   91.2506    3.2539 C.3     1  UNL1        0.2526
     25 O          61.8143   92.0994    3.4497 O.3     1  UNL1       -0.4683
     26 O          59.0535   93.1970    3.0333 O.3     1  UNL1       -0.4709
     27 C          59.4082   92.9353    1.5995 C.3     1  UNL1        0.2228
     28 C          59.1555   93.9871    0.5604 C.3     1  UNL1        0.1200
     29 N          58.0094   93.8368   -0.3957 N.3     1  UNL1       -0.2696
     30 C          57.4472   92.5415   -0.9015 C.3     1  UNL1        0.0722
     31 C          56.3147   92.8597   -1.8321 C.3     1  UNL1        0.0188
     32 C          56.1770   94.3516   -1.9015 C.3     1  UNL1        0.0188
     33 C          57.2244   94.9556   -1.0137 C.3     1  UNL1        0.0722
@<TRIPOS>BOND
     1    24    25    1
     2    25    18    1
     3    18    19   ar
     4    19    20   ar
     5    20     1    1
     6     1     2   ar
     7     2     3   ar
     8     3     4   ar
     9     4     5   ar
    10     5     6   ar
    11     6    11    1
    12    11    12   ar
    13    12    13   ar
    14    13    14   ar
    15    14    15    1
    16    14    16   ar
    17    16    17   ar
    18     6     7   ar
    19     7     8   ar
    20     8     9   ar
    21     9    10    2
    22    20    21   ar
    23    21    22   ar
    24    22    23   ar
    25    23    26    1
    26    26    27    1
    27    27    28    1
    28    28    29    1
    29    29    30    1
    30    30    31    1
    31    31    32    1
    32    32    33    1
    33    23    18   ar
    34    33    29    1
    35     9     1   ar
    36     8     4   ar
    37    17    11   ar
@<TRIPOS>MOLECULE
*****
 33 37 0 0 0
SMALL
GASTEIGER

@<TRIPOS>ATOM
      1 N          64.0673   87.5198   14.3902 N.ar    1  UNL1       -0.2562
      2 C          64.0640   86.8949   15.7537 C.ar    1  UNL1        0.1851
      3 N          63.8453   85.4182   15.9015 N.ar    1  UNL1       -0.2244
      4 C          63.6299   84.5667   14.6856 C.ar    1  UNL1        0.0941
      5 C          63.3904   83.0951   14.5205 C.ar    1  UNL1        0.0263
      6 C          63.2458   82.8107   13.0549 C.ar    1  UNL1        0.0312
      7 S          63.3958   84.1064   12.3142 S.2     1  UNL1       -0.0807
      8 C          63.6332   85.1917   13.3221 C.ar    1  UNL1        0.1036
      9 C          63.8519   86.6683   13.1744 C.ar    1  UNL1        0.2733
     10 O          63.8552   87.2933   11.8108 O.2     1  UNL1       -0.2660
     11 C          62.9951   81.4665   12.4382 C.ar    1  UNL1        0.0061
     12 C          63.1449   81.2811   10.9572 C.ar    1  UNL1        0.0014
     13 C          62.8942   79.9368   10.3406 C.ar    1  UNL1        0.0114
     14 C          62.4937   78.7781   11.2048 C.ar    1  UNL1        0.0577
     15 CL         62.2430   77.4339   10.5880 Cl      1  UNL1       -0.0822
     16 C          62.3439   78.9635   12.6857 C.ar    1  UNL1        0.0114
     17 C          62.5946   80.3078   13.3024 C.ar    1  UNL1        0.0014
     18 C          64.1692   91.1552   12.8015 C.ar    1  UNL1        0.1738
     19 C          63.9505   89.6786   12.9494 C.ar    1  UNL1        0.0577
     20 C          64.2861   88.9965   14.2425 C.ar    1  UNL1        0.0715
     21 C          64.8403   89.7909   15.3877 C.ar    1  UNL1        0.0210
     22 C          65.0591   91.2675   15.2399 C.ar    1  UNL1        0.0415
     23 C          64.7235   91.9496   13.9468 C.ar    1  UNL1        0.1724
     24 C          63.1151   91.0849   10.4279 C.3     1  UNL1        0.2526
     25 O          63.8337   91.8373   11.5084 O.3     1  UNL1       -0.4683
     26 O          64.9422   93.4262   13.7990 O.3     1  UNL1       -0.4709
     27 C          66.2108   93.9387   13.1840 C.3     1  UNL1        0.2228
     28 C          66.2021   94.4745   11.7830 C.3     1  UNL1        0.1200
     29 N          67.0283   93.8112   10.7212 N.3     1  UNL1       -0.2696
     30 C          67.4134   92.3621   10.6806 C.3     1  UNL1        0.0722
     31 C          68.2376   92.1359    9.4479 C.3     1  UNL1        0.0188
     32 C          68.3617   93.4452    8.7266 C.3     1  UNL1        0.0188
     33 C          67.6143   94.4806    9.5136 C.3     1  UNL1        0.0722
@<TRIPOS>BOND
     1    24    25    1
     2    25    18    1
     3    18    19   ar
     4    19    20   ar
     5    20     1    1
     6     1     2   ar
     7     2     3   ar
     8     3     4   ar
     9     4     5   ar
    10     5     6   ar
    11     6    11    1
    12    11    12   ar
    13    12    13   ar
    14    13    14   ar
    15    14    15    1
    16    14    16   ar
    17    16    17   ar
    18     6     7   ar
    19     7     8   ar
    20     8     9   ar
    21     9    10    2
    22    20    21   ar
    23    21    22   ar
    24    22    23   ar
    25    23    26    1
    26    26    27    1
    27    27    28    1
    28    28    29    1
    29    29    30    1
    30    30    31    1
    31    31    32    1
    32    32    33    1
    33    23    18   ar
    34    33    29    1
    35     9     1   ar
    36     8     4   ar
    37    17    11   ar
@<TRIPOS>MOLECULE
*****
 33 37 0 0 0
SMALL
GASTEIGER

@<TRIPOS>ATOM
      1 N          60.1312   88.8095    7.3152 N.ar    1  UNL1       -0.2562
      2 C          59.4901   87.4627    7.1572 C.ar    1  UNL1        0.1851
      3 N          59.7593   86.3814    8.1615 N.ar    1  UNL1       -0.2244
      4 C          60.6697   86.6470    9.3236 C.ar    1  UNL1        0.0941
      5 C          61.1192   85.7829   10.4643 C.ar    1  UNL1        0.0263
      6 C          62.0383   86.5957   11.3272 C.ar    1  UNL1        0.0312
      7 S          62.1567   87.9621   10.7199 S.2     1  UNL1       -0.0807
      8 C          61.3108   87.9938    9.4815 C.ar    1  UNL1        0.1036
      9 C          61.0416   89.0751    8.4774 C.ar    1  UNL1        0.2733
     10 O          61.6828   90.4219    8.6353 O.2     1  UNL1       -0.2660
     11 C          62.7193   86.1248   12.5780 C.ar    1  UNL1        0.0061
     12 C          63.5813   87.0683   13.3634 C.ar    1  UNL1        0.0014
     13 C          64.2623   86.5973   14.6141 C.ar    1  UNL1        0.0114
     14 C          64.0815   85.1829   15.0795 C.ar    1  UNL1        0.0577
     15 CL         64.7625   84.7120   16.3303 Cl      1  UNL1       -0.0822
     16 C          63.2195   84.2394   14.2942 C.ar    1  UNL1        0.0114
     17 C          62.5385   84.7104   13.0434 C.ar    1  UNL1        0.0014
     18 C          58.1948   91.4772    5.1053 C.ar    1  UNL1        0.1738
     19 C          58.4641   90.3959    6.1094 C.ar    1  UNL1        0.0577
     20 C          59.8620   89.8908    6.3110 C.ar    1  UNL1        0.0715
     21 C          60.9906   90.4670    5.5085 C.ar    1  UNL1        0.0210
     22 C          60.7214   91.5483    4.5043 C.ar    1  UNL1        0.0415
     23 C          59.3235   92.0534    4.3027 C.ar    1  UNL1        0.1724
     24 C          55.6269   91.1083    5.2460 C.3     1  UNL1        0.2526
     25 O          56.7968   91.9823    4.9037 O.3     1  UNL1       -0.4683
     26 O          59.0542   93.1347    3.2986 O.3     1  UNL1       -0.4709
     27 C          59.8187   93.1673    2.0084 C.3     1  UNL1        0.2228
     28 C          60.8007   94.2704    1.7462 C.3     1  UNL1        0.1200
     29 N          62.2014   93.9422    1.3215 N.3     1  UNL1       -0.2696
     30 C          62.8597   94.3741    0.0447 C.3     1  UNL1        0.0722
     31 C          64.2548   93.8233    0.0332 C.3     1  UNL1        0.0188
     32 C          64.4588   93.0510    1.3027 C.3     1  UNL1        0.0188
     33 C          63.1897   93.1245    2.0990 C.3     1  UNL1        0.0722
@<TRIPOS>BOND
     1    24    25    1
     2    25    18    1
     3    18    19   ar
     4    19    20   ar
     5    20     1    1
     6     1     2   ar
     7     2     3   ar
     8     3     4   ar
     9     4     5   ar
    10     5     6   ar
    11     6    11    1
    12    11    12   ar
    13    12    13   ar
    14    13    14   ar
    15    14    15    1
    16    14    16   ar
    17    16    17   ar
    18     6     7   ar
    19     7     8   ar
    20     8     9   ar
    21     9    10    2
    22    20    21   ar
    23    21    22   ar
    24    22    23   ar
    25    23    26    1
    26    26    27    1
    27    27    28    1
    28    28    29    1
    29    29    30    1
    30    30    31    1
    31    31    32    1
    32    32    33    1
    33    23    18   ar
    34    33    29    1
    35     9     1   ar
    36     8     4   ar
    37    17    11   ar
@<TRIPOS>MOLECULE
*****
 33 37 0 0 0
SMALL
GASTEIGER

@<TRIPOS>ATOM
      1 N          59.5654   90.6810    5.5279 N.ar    1  UNL1       -0.2562
      2 C          58.2111   91.2074    5.1556 C.ar    1  UNL1        0.1851
      3 N          58.0646   92.1481    3.9964 N.ar    1  UNL1       -0.2244
      4 C          59.2726   92.5624    3.2096 C.ar    1  UNL1        0.0941
      5 C          59.4369   93.4691    2.0259 C.ar    1  UNL1        0.0263
      6 C          60.8929   93.5030    1.6667 C.ar    1  UNL1        0.0312
      7 S          61.6284   92.6173    2.6283 S.2     1  UNL1       -0.0807
      8 C          60.6270   92.0360    3.5819 C.ar    1  UNL1        0.1036
      9 C          60.7734   91.0953    4.7410 C.ar    1  UNL1        0.2733
     10 O          62.1278   90.5689    5.1133 O.2     1  UNL1       -0.2660
     11 C          61.5058   94.2853    0.5432 C.ar    1  UNL1        0.0061
     12 C          61.0021   94.1052   -0.8582 C.ar    1  UNL1        0.0014
     13 C          61.6151   94.8876   -1.9818 C.ar    1  UNL1        0.0114
     14 C          62.7316   95.8500   -1.7039 C.ar    1  UNL1        0.0577
     15 CL         63.3445   96.6322   -2.8275 Cl      1  UNL1       -0.0822
     16 C          63.2352   96.0300   -0.3025 C.ar    1  UNL1        0.0114
     17 C          62.6223   95.2477    0.8210 C.ar    1  UNL1        0.0014
     18 C          59.7168   87.3213    7.6349 C.ar    1  UNL1        0.1738
     19 C          59.5703   88.2621    6.4758 C.ar    1  UNL1        0.0577
     20 C          59.7119   89.7403    6.6871 C.ar    1  UNL1        0.0715
     21 C          60.0000   90.2778    8.0574 C.ar    1  UNL1        0.0210
     22 C          60.1464   89.3371    9.2167 C.ar    1  UNL1        0.0415
     23 C          60.0049   87.8589    9.0053 C.ar    1  UNL1        0.1724
     24 C          60.7688   85.0238    7.0311 C.3     1  UNL1        0.2526
     25 O          59.5752   85.8430    7.4236 O.3     1  UNL1       -0.4683
     26 O          60.1513   86.9181   10.1645 O.3     1  UNL1       -0.4709
     27 C          61.4975   86.7027   10.7901 C.3     1  UNL1        0.2228
     28 C          62.2482   85.4295   10.5346 C.3     1  UNL1        0.1200
     29 N          62.7396   84.6045   11.6870 N.3     1  UNL1       -0.2696
     30 C          62.7486   83.1063   11.7582 C.3     1  UNL1        0.0722
     31 C          63.3228   82.7088   13.0857 C.3     1  UNL1        0.0188
     32 C          63.6686   83.9613   13.8349 C.3     1  UNL1        0.0188
     33 C          63.3082   85.1330   12.9705 C.3     1  UNL1        0.0722
@<TRIPOS>BOND
     1    24    25    1
     2    25    18    1
     3    18    19   ar
     4    19    20   ar
     5    20     1    1
     6     1     2   ar
     7     2     3   ar
     8     3     4   ar
     9     4     5   ar
    10     5     6   ar
    11     6    11    1
    12    11    12   ar
    13    12    13   ar
    14    13    14   ar
    15    14    15    1
    16    14    16   ar
    17    16    17   ar
    18     6     7   ar
    19     7     8   ar
    20     8     9   ar
    21     9    10    2
    22    20    21   ar
    23    21    22   ar
    24    22    23   ar
    25    23    26    1
    26    26    27    1
    27    27    28    1
    28    28    29    1
    29    29    30    1
    30    30    31    1
    31    31    32    1
    32    32    33    1
    33    23    18   ar
    34    33    29    1
    35     9     1   ar
    36     8     4   ar
    37    17    11   ar
