@<TRIPOS>MOLECULE
*****
 39 44 0 0 0
SMALL
GASTEIGER

@<TRIPOS>ATOM
      1 C          72.5081   80.2396   14.2844 C.ar    1  UNL1        0.2400
      2 N          72.3977   79.4554   15.5583 N.ar    1  UNL1       -0.2090
      3 C          72.4475   77.9567   15.5231 C.ar    1  UNL1        0.1026
      4 C          72.5993   76.9289   14.3839 C.ar    1  UNL1        0.0267
      5 C          72.6059   78.3511   13.9069 C.ar    1  UNL1        0.0226
      6 C          72.6682   79.5251   12.9753 C.ar    1  UNL1        0.1178
      7 N          72.7786   80.3093   11.7014 N.pl3   1  UNL1       -0.2104
      8 S          72.9237   80.6091   10.2389 S.O2    1  UNL1        0.0737
      9 O          72.9680   81.8834    9.4487 O.2     1  UNL1       -0.1499
     10 O          72.7964   81.8392   11.0877 O.2     1  UNL1       -0.1499
     11 C          73.0862   80.3885    8.7640 C.ar    1  UNL1        0.1253
     12 C          73.1484   81.5624    7.8324 C.ar    1  UNL1        0.0202
     13 C          73.3109   81.3417    6.3577 C.ar    1  UNL1        0.0015
     14 C          73.4110   79.9471    5.8146 C.ar    1  UNL1        0.0046
     15 C          73.3488   78.7732    6.7462 C.ar    1  UNL1        0.0547
     16 C          73.1863   78.9938    8.2209 C.ar    1  UNL1        0.0247
     17 C          73.4849   77.1570    5.9263 C.2     1  UNL1        0.2461
     18 O          73.6301   77.4568    4.4637 O.2     1  UNL1       -0.2701
     19 N          73.5347   75.6583    5.8911 N.am    1  UNL1       -0.2969
     20 C          73.5280   74.2361    6.3680 C.3     1  UNL1        0.1181
     21 C          73.4657   73.0621    7.2997 C.ar    1  UNL1        0.0167
     22 C          73.5351   71.5368    7.0866 C.ar    1  UNL1        0.0962
     23 N          73.4728   70.3628    8.0183 N.ar    1  UNL1       -0.2425
     24 C          73.3104   70.5835    9.4930 C.ar    1  UNL1        0.1003
     25 C          73.2102   71.9781   10.0361 C.ar    1  UNL1        0.0367
     26 C          73.3554   72.2779    8.5736 C.ar    1  UNL1        0.0020
     27 C          73.0478   72.1988   11.5109 C.ar    1  UNL1        0.0865
     28 N          73.0975   70.6999   11.4757 N.ar    1  UNL1       -0.2239
     29 C          72.9872   69.9158   12.7496 C.ar    1  UNL1        0.1993
     30 N          72.8271   70.6303   14.0587 N.ar    1  UNL1       -0.2173
     31 C          72.7773   72.1291   14.0939 C.ar    1  UNL1        0.1139
     32 S          72.6402   73.2672   15.0614 S.2     1  UNL1       -0.0679
     33 C          72.6490   75.4302   14.3487 C.ar    1  UNL1        0.0325
     34 C          72.7492   74.0356   13.8055 C.ar    1  UNL1        0.0101
     35 C          72.8877   72.9134   12.8200 C.ar    1  UNL1        0.0421
     36 H          72.7128   81.2246   12.0579 H       1  UNL1        0.1739
     37 H          73.6413   75.5134    4.9232 H       1  UNL1        0.1501
     38 C          73.6115   82.5397   13.7923 C.3     1  UNL1        0.2543
     39 O          72.4583   81.7384   14.3196 O.3     1  UNL1       -0.4553
@<TRIPOS>BOND
     1    38    39    1
     2    39     1    1
     3     1     2   ar
     4     2     3   ar
     5     3     4   ar
     6     4     5   ar
     7     5     6   ar
     8     6     7    1
     9     7     8    1
    10     8     9    2
    11     8    10    2
    12     8    11    1
    13    11    12   ar
    14    12    13   ar
    15    13    14   ar
    16    14    15   ar
    17    15    16   ar
    18    15    17    1
    19    17    18    2
    20    17    19   am
    21    19    20    1
    22    20    21    1
    23    21    22   ar
    24    22    23   ar
    25    23    24   ar
    26    24    25   ar
    27    25    26   ar
    28    25    27    1
    29    27    28   ar
    30    28    29   ar
    31    29    30   ar
    32    30    31   ar
    33    31    32   ar
    34    32    33   ar
    35    33    34   ar
    36    34    35   ar
    37     6     1   ar
    38    16    11   ar
    39    26    21   ar
    40    35    27   ar
    41    33     4    1
    42    35    31   ar
    43     7    36    1
    44    19    37    1
@<TRIPOS>MOLECULE
*****
 39 44 0 0 0
SMALL
GASTEIGER

@<TRIPOS>ATOM
      1 C          58.8735   89.5351    6.8013 C.ar    1  UNL1        0.2400
      2 N          59.0016   88.9036    8.1558 N.ar    1  UNL1       -0.2090
      3 C          60.0911   89.3433    9.0883 C.ar    1  UNL1        0.1026
      4 C          61.2195   90.3884    8.9801 C.ar    1  UNL1        0.0267
      5 C          60.3603   90.3114    7.7530 C.ar    1  UNL1        0.0226
      6 C          59.8349   90.6065    6.3793 C.ar    1  UNL1        0.1178
      7 N          59.7067   91.2380    5.0248 N.pl3   1  UNL1       -0.2104
      8 S          59.9913   92.1299    3.8528 S.O2    1  UNL1        0.0737
      9 O          59.3455   92.3028    2.5101 O.2     1  UNL1       -0.1499
     10 O          58.8167   91.2222    3.6373 O.2     1  UNL1       -0.1499
     11 C          60.6543   93.1745    3.0047 C.ar    1  UNL1        0.1253
     12 C          60.1289   93.4696    1.6310 C.ar    1  UNL1        0.0202
     13 C          60.7919   94.5141    0.7829 C.ar    1  UNL1        0.0015
     14 C          61.9802   95.2636    1.3084 C.ar    1  UNL1        0.0046
     15 C          62.5056   94.9686    2.6821 C.ar    1  UNL1        0.0547
     16 C          61.8426   93.9240    3.5302 C.ar    1  UNL1        0.0247
     17 C          63.9478   95.9641    3.1633 C.2     1  UNL1        0.2461
     18 O          64.2324   96.8560    1.9913 O.2     1  UNL1       -0.2701
     19 N          65.0373   96.4038    4.0959 N.am    1  UNL1       -0.2969
     20 C          65.8965   96.4809    5.3229 C.3     1  UNL1        0.1181
     21 C          66.4219   96.1857    6.6966 C.ar    1  UNL1        0.0167
     22 C          67.5914   96.7515    7.5268 C.ar    1  UNL1        0.0962
     23 N          68.1167   96.4564    8.9005 N.ar    1  UNL1       -0.2425
     24 C          67.4538   95.4118    9.7486 C.ar    1  UNL1        0.1003
     25 C          66.2655   94.6623    9.2231 C.ar    1  UNL1        0.0367
     26 C          66.5501   95.5542    8.0511 C.ar    1  UNL1        0.0020
     27 C          65.6025   93.6177   10.0712 C.ar    1  UNL1        0.0865
     28 N          66.6920   94.0575   11.0039 N.ar    1  UNL1       -0.2239
     29 C          66.8201   93.4259   12.3583 C.ar    1  UNL1        0.1993
     30 N          65.8588   92.3546   12.7803 N.ar    1  UNL1       -0.2173
     31 C          64.7692   91.9149   11.8477 C.ar    1  UNL1        0.1139
     32 S          63.6202   90.9537   11.7705 S.2     1  UNL1       -0.0679
     33 C          62.3090   90.8281    9.9126 C.ar    1  UNL1        0.0325
     34 C          63.4973   91.5776   10.4381 C.ar    1  UNL1        0.0101
     35 C          64.6411   92.5464   10.4932 C.ar    1  UNL1        0.0421
     36 H          58.9268   90.7461    4.6799 H       1  UNL1        0.1739
     37 H          65.4724   97.0894    3.5392 H       1  UNL1        0.1501
     38 C          56.6393   90.0160    5.5655 C.3     1  UNL1        0.2543
     39 O          57.7840   89.0954    5.8688 O.3     1  UNL1       -0.4553
@<TRIPOS>BOND
     1    38    39    1
     2    39     1    1
     3     1     2   ar
     4     2     3   ar
     5     3     4   ar
     6     4     5   ar
     7     5     6   ar
     8     6     7    1
     9     7     8    1
    10     8     9    2
    11     8    10    2
    12     8    11    1
    13    11    12   ar
    14    12    13   ar
    15    13    14   ar
    16    14    15   ar
    17    15    16   ar
    18    15    17    1
    19    17    18    2
    20    17    19   am
    21    19    20    1
    22    20    21    1
    23    21    22   ar
    24    22    23   ar
    25    23    24   ar
    26    24    25   ar
    27    25    26   ar
    28    25    27    1
    29    27    28   ar
    30    28    29   ar
    31    29    30   ar
    32    30    31   ar
    33    31    32   ar
    34    32    33   ar
    35    33    34   ar
    36    34    35   ar
    37     6     1   ar
    38    16    11   ar
    39    26    21   ar
    40    35    27   ar
    41    33     4    1
    42    35    31   ar
    43     7    36    1
    44    19    37    1
