@<TRIPOS>MOLECULE
*****
 38 42 0 0 0
SMALL
GASTEIGER

@<TRIPOS>ATOM
      1 C          62.3316   89.8863   13.3145 C.3     1  UNL1        0.1139
      2 C          63.3061   90.7373   12.5554 C.ar    1  UNL1       -0.0029
      3 C          63.1101   90.9740   11.0872 C.ar    1  UNL1       -0.0026
      4 C          64.0846   91.8250   10.3281 C.ar    1  UNL1       -0.0003
      5 C          65.2550   92.4393   11.0372 C.ar    1  UNL1       -0.0000
      6 C          65.4509   92.2025   12.5054 C.ar    1  UNL1       -0.0003
      7 C          64.4765   91.3516   13.2645 C.ar    1  UNL1       -0.0026
      8 C          66.2294   93.2902   10.2781 C.ar    1  UNL1       -0.0000
      9 C          65.9382   94.7442   10.0523 C.ar    1  UNL1       -0.0000
     10 C          66.9127   95.5953    9.2932 C.ar    1  UNL1        0.0000
     11 C          68.1784   94.9923    8.7599 C.ar    1  UNL1        0.0000
     12 C          68.4696   93.5382    8.9857 C.ar    1  UNL1        0.0000
     13 C          67.4951   92.6872    9.7448 C.ar    1  UNL1       -0.0000
     14 C          59.8337   90.0098   12.6109 C.3     1  UNL1        0.1152
     15 N          61.1495   89.2896   12.6100 N.am    1  UNL1       -0.2729
     16 C          61.2831   87.9725   11.9045 C.2     1  UNL1        0.2465
     17 O          60.1009   87.3757   11.2000 O.2     1  UNL1       -0.2730
     18 C          62.5988   87.2523   11.9036 C.3     1  UNL1        0.1835
     19 N          62.7816   86.0253   11.0603 N.am    1  UNL1       -0.2439
     20 C          62.8656   86.1468    9.5676 C.2     1  UNL1        0.2744
     21 O          62.7667   87.4953    8.9182 O.2     1  UNL1       -0.2705
     22 C          63.0484   84.9199    8.7243 C.3     1  UNL1        0.2900
     23 O          63.1473   83.5714    9.3737 O.3     1  UNL1       -0.4643
     24 C          63.0633   83.4498   10.8664 C.ar    1  UNL1        0.1537
     25 C          63.1622   82.1013   11.5158 C.ar    1  UNL1        0.0504
     26 C          63.0782   81.9797   13.0085 C.ar    1  UNL1        0.0713
     27 CL         63.1770   80.6312   13.6579 Cl      1  UNL1       -0.0813
     28 C          62.8954   83.2067   13.8519 C.ar    1  UNL1        0.0696
     29 CL         62.8114   83.0852   15.3445 Cl      1  UNL1       -0.0813
     30 C          62.7965   84.5552   13.2024 C.ar    1  UNL1        0.0302
     31 C          62.8805   84.6768   11.7097 C.ar    1  UNL1        0.0894
     32 C          62.5393   89.6320   14.7782 C.3     1  UNL1        0.0968
     33 N          63.1650   88.3475   15.2348 N.3     1  UNL1       -0.2667
     34 C          62.6285   87.6403   16.4440 C.3     1  UNL1        0.1047
     35 C          63.2541   86.3557   16.9007 C.3     1  UNL1        0.1595
     36 O          64.4163   85.7785   16.1482 O.3     1  UNL1       -0.3508
     37 C          64.9528   86.4857   14.9391 C.3     1  UNL1        0.1595
     38 C          64.3271   87.7702   14.4824 C.3     1  UNL1        0.1047
@<TRIPOS>BOND
     1    14    15    1
     2    15    16   am
     3    16    17    2
     4    16    18    1
     5    18    19    1
     6    19    20   am
     7    20    21    2
     8    20    22    1
     9    22    23    1
    10    23    24    1
    11    24    25   ar
    12    25    26   ar
    13    26    27    1
    14    26    28   ar
    15    28    29    1
    16    28    30   ar
    17    30    31   ar
    18    15     1    1
    19     1    32    1
    20    32    33    1
    21    33    34    1
    22    34    35    1
    23    35    36    1
    24    36    37    1
    25    37    38    1
    26     1     2    1
    27     2     3   ar
    28     3     4   ar
    29     4     5   ar
    30     5     8    1
    31     8     9   ar
    32     9    10   ar
    33    10    11   ar
    34    11    12   ar
    35    12    13   ar
    36     5     6   ar
    37     6     7   ar
    38    31    19    1
    39    38    33    1
    40     7     2   ar
    41    31    24   ar
    42    13     8   ar
@<TRIPOS>MOLECULE
*****
 38 42 0 0 0
SMALL
GASTEIGER

@<TRIPOS>ATOM
      1 C          60.1126   94.6380   -1.6336 C.3     1  UNL1        0.1139
      2 C          58.6809   94.8906   -2.0027 C.ar    1  UNL1       -0.0029
      3 C          57.5815   94.1742   -1.2761 C.ar    1  UNL1       -0.0026
      4 C          56.1496   94.4268   -1.6451 C.ar    1  UNL1       -0.0003
      5 C          55.8173   95.3958   -2.7408 C.ar    1  UNL1       -0.0000
      6 C          56.9168   96.1122   -3.4675 C.ar    1  UNL1       -0.0003
      7 C          58.3486   95.8596   -3.0984 C.ar    1  UNL1       -0.0026
      8 C          54.3856   95.6484   -3.1099 C.ar    1  UNL1       -0.0000
      9 C          53.3127   95.5448   -2.0669 C.ar    1  UNL1       -0.0000
     10 C          51.8809   95.7974   -2.4359 C.ar    1  UNL1        0.0000
     11 C          51.5220   96.1537   -3.8481 C.ar    1  UNL1        0.0000
     12 C          52.5950   96.2573   -4.8912 C.ar    1  UNL1        0.0000
     13 C          54.0268   96.0047   -4.5221 C.ar    1  UNL1       -0.0000
     14 C          61.4145   96.8554   -1.2623 C.3     1  UNL1        0.1152
     15 N          60.8297   95.5858   -0.7184 N.am    1  UNL1       -0.2729
     16 C          60.9619   95.2639    0.7407 C.2     1  UNL1        0.2465
     17 O          61.6790   96.2117    1.6558 O.2     1  UNL1       -0.2730
     18 C          60.3771   93.9942    1.2846 C.3     1  UNL1        0.1835
     19 N          61.2272   93.0663    2.1011 N.am    1  UNL1       -0.2439
     20 C          62.6868   92.9170    1.7896 C.2     1  UNL1        0.2744
     21 O          63.2965   93.6955    0.6617 O.2     1  UNL1       -0.2705
     22 C          63.5368   91.9892    2.6061 C.3     1  UNL1        0.2900
     23 O          62.9271   91.2107    3.7340 O.3     1  UNL1       -0.4643
     24 C          61.4675   91.3600    4.0455 C.ar    1  UNL1        0.1537
     25 C          60.8578   90.5816    5.1734 C.ar    1  UNL1        0.0504
     26 C          59.3981   90.7309    5.4849 C.ar    1  UNL1        0.0713
     27 CL         58.7885   89.9524    6.6129 Cl      1  UNL1       -0.0813
     28 C          58.5481   91.6587    4.6684 C.ar    1  UNL1        0.0696
     29 CL         57.0884   91.8081    4.9799 Cl      1  UNL1       -0.0813
     30 C          59.1578   92.4372    3.5405 C.ar    1  UNL1        0.0302
     31 C          60.6175   92.2879    3.2290 C.ar    1  UNL1        0.0894
     32 C          60.8273   93.4375   -2.1796 C.3     1  UNL1        0.0968
     33 N          61.8646   93.6049   -3.2502 N.3     1  UNL1       -0.2667
     34 C          63.1726   92.8777   -3.1474 C.3     1  UNL1        0.1047
     35 C          64.2099   93.0451   -4.2179 C.3     1  UNL1        0.1595
     36 O          63.9391   93.9396   -5.3913 O.3     1  UNL1       -0.3508
     37 C          62.6312   94.6667   -5.4940 C.3     1  UNL1        0.1595
     38 C          61.5939   94.4993   -4.4235 C.3     1  UNL1        0.1047
@<TRIPOS>BOND
     1    14    15    1
     2    15    16   am
     3    16    17    2
     4    16    18    1
     5    18    19    1
     6    19    20   am
     7    20    21    2
     8    20    22    1
     9    22    23    1
    10    23    24    1
    11    24    25   ar
    12    25    26   ar
    13    26    27    1
    14    26    28   ar
    15    28    29    1
    16    28    30   ar
    17    30    31   ar
    18    15     1    1
    19     1    32    1
    20    32    33    1
    21    33    34    1
    22    34    35    1
    23    35    36    1
    24    36    37    1
    25    37    38    1
    26     1     2    1
    27     2     3   ar
    28     3     4   ar
    29     4     5   ar
    30     5     8    1
    31     8     9   ar
    32     9    10   ar
    33    10    11   ar
    34    11    12   ar
    35    12    13   ar
    36     5     6   ar
    37     6     7   ar
    38    31    19    1
    39    38    33    1
    40     7     2   ar
    41    31    24   ar
    42    13     8   ar
@<TRIPOS>MOLECULE
*****
 38 42 0 0 0
SMALL
GASTEIGER

@<TRIPOS>ATOM
      1 C          63.6471   89.4345   13.0274 C.3     1  UNL1        0.1139
      2 C          64.2846   90.6543   12.4311 C.ar    1  UNL1       -0.0029
      3 C          63.8464   91.1468   11.0838 C.ar    1  UNL1       -0.0026
      4 C          64.4839   92.3667   10.4874 C.ar    1  UNL1       -0.0003
      5 C          65.5596   93.0940   11.2384 C.ar    1  UNL1       -0.0000
      6 C          65.9977   92.6014   12.5858 C.ar    1  UNL1       -0.0003
      7 C          65.3603   91.3816   13.1821 C.ar    1  UNL1       -0.0026
      8 C          66.1970   94.3138   10.6421 C.ar    1  UNL1       -0.0000
      9 C          66.9460   94.2112    9.3465 C.ar    1  UNL1       -0.0000
     10 C          67.5835   95.4311    8.7501 C.ar    1  UNL1        0.0000
     11 C          67.4721   96.7535    9.4493 C.ar    1  UNL1        0.0000
     12 C          66.7230   96.8560   10.7450 C.ar    1  UNL1        0.0000
     13 C          66.0856   95.6362   11.3413 C.ar    1  UNL1       -0.0000
     14 C          63.1581   90.4903   15.3504 C.3     1  UNL1        0.1152
     15 N          63.5321   89.3005   14.5170 N.am    1  UNL1       -0.2729
     16 C          63.7912   87.9767   15.1732 C.2     1  UNL1        0.2465
     17 O          63.6762   87.8428   16.6628 O.2     1  UNL1       -0.2730
     18 C          64.1653   86.7870   14.3398 C.3     1  UNL1        0.1835
     19 N          63.6291   85.4297   14.6869 N.am    1  UNL1       -0.2439
     20 C          63.2623   85.1084   16.1054 C.2     1  UNL1        0.2744
     21 O          63.4317   86.1443   17.1769 O.2     1  UNL1       -0.2705
     22 C          62.7262   83.7512   16.4523 C.3     1  UNL1        0.2900
     23 O          62.5568   82.7153   15.3808 O.3     1  UNL1       -0.4643
     24 C          62.9236   83.0366   13.9623 C.ar    1  UNL1        0.1537
     25 C          62.7542   82.0006   12.8908 C.ar    1  UNL1        0.0504
     26 C          63.1210   82.3219   11.4723 C.ar    1  UNL1        0.0713
     27 CL         62.9516   81.2860   10.4008 Cl      1  UNL1       -0.0813
     28 C          63.6572   83.6792   11.1252 C.ar    1  UNL1        0.0696
     29 CL         64.0239   84.0005    9.7067 Cl      1  UNL1       -0.0813
     30 C          63.8265   84.7151   12.1968 C.ar    1  UNL1        0.0302
     31 C          63.4597   84.3938   13.6153 C.ar    1  UNL1        0.0894
     32 C          63.1246   88.3486   12.1342 C.3     1  UNL1        0.0968
     33 N          61.9721   88.6238   11.2144 N.3     1  UNL1       -0.2667
     34 C          60.8935   89.5803   11.6290 C.3     1  UNL1        0.1047
     35 C          59.7410   89.8555   10.7092 C.3     1  UNL1        0.1595
     36 O          59.6671   89.1741    9.3748 O.3     1  UNL1       -0.3508
     37 C          60.7456   88.2177    8.9603 C.3     1  UNL1        0.1595
     38 C          61.8981   87.9425    9.8801 C.3     1  UNL1        0.1047
@<TRIPOS>BOND
     1    14    15    1
     2    15    16   am
     3    16    17    2
     4    16    18    1
     5    18    19    1
     6    19    20   am
     7    20    21    2
     8    20    22    1
     9    22    23    1
    10    23    24    1
    11    24    25   ar
    12    25    26   ar
    13    26    27    1
    14    26    28   ar
    15    28    29    1
    16    28    30   ar
    17    30    31   ar
    18    15     1    1
    19     1    32    1
    20    32    33    1
    21    33    34    1
    22    34    35    1
    23    35    36    1
    24    36    37    1
    25    37    38    1
    26     1     2    1
    27     2     3   ar
    28     3     4   ar
    29     4     5   ar
    30     5     8    1
    31     8     9   ar
    32     9    10   ar
    33    10    11   ar
    34    11    12   ar
    35    12    13   ar
    36     5     6   ar
    37     6     7   ar
    38    31    19    1
    39    38    33    1
    40     7     2   ar
    41    31    24   ar
    42    13     8   ar
@<TRIPOS>MOLECULE
*****
 38 42 0 0 0
SMALL
GASTEIGER

@<TRIPOS>ATOM
      1 C          63.8159   89.6631   13.7314 C.3     1  UNL1        0.1139
      2 C          64.4262   90.8218   13.0001 C.ar    1  UNL1       -0.0029
      3 C          63.9724   91.1540   11.6096 C.ar    1  UNL1       -0.0026
      4 C          64.5827   92.3128   10.8782 C.ar    1  UNL1       -0.0003
      5 C          65.6469   93.1392   11.5374 C.ar    1  UNL1       -0.0000
      6 C          66.1007   92.8069   12.9280 C.ar    1  UNL1       -0.0003
      7 C          65.4904   91.6482   13.6593 C.ar    1  UNL1       -0.0026
      8 C          66.2573   94.2979   10.8060 C.ar    1  UNL1       -0.0000
      9 C          67.0689   94.0594    9.5674 C.ar    1  UNL1       -0.0000
     10 C          67.6793   95.2181    8.8360 C.ar    1  UNL1        0.0000
     11 C          67.4780   96.6153    9.3433 C.ar    1  UNL1        0.0000
     12 C          66.6663   96.8538   10.5820 C.ar    1  UNL1        0.0000
     13 C          66.0559   95.6951   11.3134 C.ar    1  UNL1       -0.0000
     14 C          61.7018   89.8519   15.2297 C.3     1  UNL1        0.1152
     15 N          62.3271   89.5789   13.8939 N.am    1  UNL1       -0.2729
     16 C          61.4636   89.2218   12.7205 C.2     1  UNL1        0.2465
     17 O          59.9748   89.1377   12.8829 O.2     1  UNL1       -0.2730
     18 C          62.0889   88.9489   11.3846 C.3     1  UNL1        0.1835
     19 N          61.2246   88.8084   10.1666 N.am    1  UNL1       -0.2439
     20 C          60.2059   89.8612    9.8444 C.2     1  UNL1        0.2744
     21 O          60.0513   91.0544   10.7402 O.2     1  UNL1       -0.2705
     22 C          59.3418   89.7207    8.6264 C.3     1  UNL1        0.2900
     23 O          59.4964   88.5275    7.7307 O.3     1  UNL1       -0.4643
     24 C          60.5151   87.4748    8.0529 C.ar    1  UNL1        0.1537
     25 C          60.6698   86.2816    7.1571 C.ar    1  UNL1        0.0504
     26 C          61.6885   85.2289    7.4793 C.ar    1  UNL1        0.0713
     27 CL         61.8431   84.0357    6.5836 Cl      1  UNL1       -0.0813
     28 C          62.5527   85.3693    8.6973 C.ar    1  UNL1        0.0696
     29 CL         63.5715   84.3166    9.0196 Cl      1  UNL1       -0.0813
     30 C          62.3981   86.5625    9.5931 C.ar    1  UNL1        0.0302
     31 C          61.3793   87.6153    9.2708 C.ar    1  UNL1        0.0894
     32 C          64.6944   88.5885   14.3003 C.3     1  UNL1        0.0968
     33 N          64.1138   87.2486   14.6434 N.3     1  UNL1       -0.2667
     34 C          63.7662   86.9239   16.0661 C.3     1  UNL1        0.1047
     35 C          63.1856   85.5841   16.4092 C.3     1  UNL1        0.1595
     36 O          62.9526   84.5690   15.3297 O.3     1  UNL1       -0.3508
     37 C          63.3002   84.8937   13.9072 C.3     1  UNL1        0.1595
     38 C          63.8808   86.2335   13.5640 C.3     1  UNL1        0.1047
@<TRIPOS>BOND
     1    14    15    1
     2    15    16   am
     3    16    17    2
     4    16    18    1
     5    18    19    1
     6    19    20   am
     7    20    21    2
     8    20    22    1
     9    22    23    1
    10    23    24    1
    11    24    25   ar
    12    25    26   ar
    13    26    27    1
    14    26    28   ar
    15    28    29    1
    16    28    30   ar
    17    30    31   ar
    18    15     1    1
    19     1    32    1
    20    32    33    1
    21    33    34    1
    22    34    35    1
    23    35    36    1
    24    36    37    1
    25    37    38    1
    26     1     2    1
    27     2     3   ar
    28     3     4   ar
    29     4     5   ar
    30     5     8    1
    31     8     9   ar
    32     9    10   ar
    33    10    11   ar
    34    11    12   ar
    35    12    13   ar
    36     5     6   ar
    37     6     7   ar
    38    31    19    1
    39    38    33    1
    40     7     2   ar
    41    31    24   ar
    42    13     8   ar
@<TRIPOS>MOLECULE
*****
 38 42 0 0 0
SMALL
GASTEIGER

@<TRIPOS>ATOM
      1 C          62.8780   89.7140   12.6749 C.3     1  UNL1        0.1139
      2 C          63.6703   90.8541   12.1074 C.ar    1  UNL1       -0.0029
      3 C          63.5298   91.2173   10.6588 C.ar    1  UNL1       -0.0026
      4 C          64.3222   92.3576   10.0912 C.ar    1  UNL1       -0.0003
      5 C          65.2550   93.1345   10.9722 C.ar    1  UNL1       -0.0000
      6 C          65.3955   92.7713   12.4208 C.ar    1  UNL1       -0.0003
      7 C          64.6031   91.6311   12.9883 C.ar    1  UNL1       -0.0026
      8 C          66.0473   94.2747   10.4047 C.ar    1  UNL1       -0.0000
      9 C          66.9860   94.0386    9.2587 C.ar    1  UNL1       -0.0000
     10 C          67.7784   95.1789    8.6911 C.ar    1  UNL1        0.0000
     11 C          67.6321   96.5551    9.2695 C.ar    1  UNL1        0.0000
     12 C          66.6934   96.7912   10.4155 C.ar    1  UNL1        0.0000
     13 C          65.9010   95.6510   10.9830 C.ar    1  UNL1       -0.0000
     14 C          64.4622   88.9750   14.5969 C.3     1  UNL1        0.1152
     15 N          63.5714   88.6269   13.4414 N.am    1  UNL1       -0.2729
     16 C          63.3740   87.1917   13.0523 C.2     1  UNL1        0.2465
     17 O          64.0674   86.1047   13.8188 O.2     1  UNL1       -0.2730
     18 C          62.4832   86.8436   11.8967 C.3     1  UNL1        0.1835
     19 N          62.7675   85.6237   11.0715 N.am    1  UNL1       -0.2439
     20 C          63.0040   85.7546    9.5961 C.2     1  UNL1        0.2744
     21 O          62.9562   87.1055    8.9458 O.2     1  UNL1       -0.2705
     22 C          63.2883   84.5347    8.7709 C.3     1  UNL1        0.2900
     23 O          63.3360   83.1838    9.4212 O.3     1  UNL1       -0.4643
     24 C          63.0995   83.0529   10.8966 C.ar    1  UNL1        0.1537
     25 C          63.1473   81.7020   11.5468 C.ar    1  UNL1        0.0504
     26 C          62.9108   81.5710   13.0222 C.ar    1  UNL1        0.0713
     27 CL         62.9586   80.2201   13.6725 Cl      1  UNL1       -0.0813
     28 C          62.6266   82.7910   13.8475 C.ar    1  UNL1        0.0696
     29 CL         62.3901   82.6600   15.3229 Cl      1  UNL1       -0.0813
     30 C          62.5788   84.1419   13.1972 C.ar    1  UNL1        0.0302
     31 C          62.8153   84.2728   11.7217 C.ar    1  UNL1        0.0894
     32 C          61.3921   89.6608   12.4760 C.3     1  UNL1        0.0968
     33 N          60.8271   89.2135   11.1604 N.3     1  UNL1       -0.2667
     34 C          60.1318   87.8886   11.0543 C.3     1  UNL1        0.1047
     35 C          59.5668   87.4413    9.7387 C.3     1  UNL1        0.1595
     36 O          59.6971   88.3190    8.5292 O.3     1  UNL1       -0.3508
     37 C          60.3924   89.6438    8.6354 C.3     1  UNL1        0.1595
     38 C          60.9574   90.0911    9.9509 C.3     1  UNL1        0.1047
@<TRIPOS>BOND
     1    14    15    1
     2    15    16   am
     3    16    17    2
     4    16    18    1
     5    18    19    1
     6    19    20   am
     7    20    21    2
     8    20    22    1
     9    22    23    1
    10    23    24    1
    11    24    25   ar
    12    25    26   ar
    13    26    27    1
    14    26    28   ar
    15    28    29    1
    16    28    30   ar
    17    30    31   ar
    18    15     1    1
    19     1    32    1
    20    32    33    1
    21    33    34    1
    22    34    35    1
    23    35    36    1
    24    36    37    1
    25    37    38    1
    26     1     2    1
    27     2     3   ar
    28     3     4   ar
    29     4     5   ar
    30     5     8    1
    31     8     9   ar
    32     9    10   ar
    33    10    11   ar
    34    11    12   ar
    35    12    13   ar
    36     5     6   ar
    37     6     7   ar
    38    31    19    1
    39    38    33    1
    40     7     2   ar
    41    31    24   ar
    42    13     8   ar
@<TRIPOS>MOLECULE
*****
 38 42 0 0 0
SMALL
GASTEIGER

@<TRIPOS>ATOM
      1 C          63.6700   89.7588   13.8684 C.3     1  UNL1        0.1139
      2 C          64.3151   90.8865   13.1186 C.ar    1  UNL1       -0.0029
      3 C          65.3488   91.7401   13.7915 C.ar    1  UNL1       -0.0026
      4 C          65.9939   92.8678   13.0417 C.ar    1  UNL1       -0.0003
      5 C          65.6054   93.1418   11.6190 C.ar    1  UNL1       -0.0000
      6 C          64.5718   92.2881   10.9461 C.ar    1  UNL1       -0.0003
      7 C          63.9266   91.1604   11.6959 C.ar    1  UNL1       -0.0026
      8 C          66.2506   94.2694   10.8693 C.ar    1  UNL1       -0.0000
      9 C          67.0768   93.9839    9.6504 C.ar    1  UNL1       -0.0000
     10 C          67.7220   95.1115    8.9006 C.ar    1  UNL1        0.0000
     11 C          67.5409   96.5247    9.3696 C.ar    1  UNL1        0.0000
     12 C          66.7145   96.8103   10.5886 C.ar    1  UNL1        0.0000
     13 C          66.0694   95.6826   11.3383 C.ar    1  UNL1       -0.0000
     14 C          61.4351   89.8967   15.1859 C.3     1  UNL1        0.1152
     15 N          62.1751   89.6417   13.9064 N.am    1  UNL1       -0.2729
     16 C          61.4202   89.2694   12.6647 C.2     1  UNL1        0.2465
     17 O          59.9252   89.1523   12.7027 O.2     1  UNL1       -0.2730
     18 C          62.1602   89.0143   11.3852 C.3     1  UNL1        0.1835
     19 N          61.6803   87.9531   10.4399 N.am    1  UNL1       -0.2439
     20 C          60.7779   88.3176    9.2986 C.2     1  UNL1        0.2744
     21 O          60.3554   89.7434    9.1024 O.2     1  UNL1       -0.2705
     22 C          60.2980   87.2563    8.3534 C.3     1  UNL1        0.2900
     23 O          60.7205   85.8305    8.5496 O.3     1  UNL1       -0.4643
     24 C          61.6229   85.4660    9.6909 C.ar    1  UNL1        0.1537
     25 C          62.0454   84.0401    9.8871 C.ar    1  UNL1        0.0504
     26 C          62.9478   83.6756   11.0285 C.ar    1  UNL1        0.0713
     27 CL         63.3703   82.2497   11.2247 Cl      1  UNL1       -0.0813
     28 C          63.4277   84.7369   11.9737 C.ar    1  UNL1        0.0696
     29 CL         64.3301   84.3723   13.1151 Cl      1  UNL1       -0.0813
     30 C          63.0052   86.1627   11.7776 C.ar    1  UNL1        0.0302
     31 C          62.1028   86.5272   10.6361 C.ar    1  UNL1        0.0894
     32 C          64.5199   88.7483   14.5802 C.3     1  UNL1        0.0968
     33 N          63.8997   87.8179   15.5802 N.3     1  UNL1       -0.2667
     34 C          63.8995   86.3390   15.3292 C.3     1  UNL1        0.1047
     35 C          63.2794   85.4087   16.3292 C.3     1  UNL1        0.1595
     36 O          62.6595   85.9573   17.5802 O.3     1  UNL1       -0.3508
     37 C          62.6598   87.4361   17.8311 C.3     1  UNL1        0.1595
     38 C          63.2799   88.3664   16.8311 C.3     1  UNL1        0.1047
@<TRIPOS>BOND
     1    14    15    1
     2    15    16   am
     3    16    17    2
     4    16    18    1
     5    18    19    1
     6    19    20   am
     7    20    21    2
     8    20    22    1
     9    22    23    1
    10    23    24    1
    11    24    25   ar
    12    25    26   ar
    13    26    27    1
    14    26    28   ar
    15    28    29    1
    16    28    30   ar
    17    30    31   ar
    18    15     1    1
    19     1    32    1
    20    32    33    1
    21    33    34    1
    22    34    35    1
    23    35    36    1
    24    36    37    1
    25    37    38    1
    26     1     2    1
    27     2     3   ar
    28     3     4   ar
    29     4     5   ar
    30     5     8    1
    31     8     9   ar
    32     9    10   ar
    33    10    11   ar
    34    11    12   ar
    35    12    13   ar
    36     5     6   ar
    37     6     7   ar
    38    31    19    1
    39    38    33    1
    40     7     2   ar
    41    31    24   ar
    42    13     8   ar
@<TRIPOS>MOLECULE
*****
 38 42 0 0 0
SMALL
GASTEIGER

@<TRIPOS>ATOM
      1 C          63.8554   90.3791   13.3458 C.3     1  UNL1        0.1139
      2 C          63.7802   88.8814   13.3812 C.ar    1  UNL1       -0.0029
      3 C          63.1903   88.1326   12.2231 C.ar    1  UNL1       -0.0026
      4 C          63.1151   86.6348   12.2584 C.ar    1  UNL1       -0.0003
      5 C          63.6298   85.8860   13.4518 C.ar    1  UNL1       -0.0000
      6 C          64.2197   86.6349   14.6100 C.ar    1  UNL1       -0.0003
      7 C          64.2949   88.1325   14.5746 C.ar    1  UNL1       -0.0026
      8 C          63.5545   84.3883   13.4872 C.ar    1  UNL1       -0.0000
      9 C          62.6799   83.7049   14.4961 C.ar    1  UNL1       -0.0000
     10 C          62.6047   82.2072   14.5315 C.ar    1  UNL1        0.0000
     11 C          63.4041   81.3929   13.5579 C.ar    1  UNL1        0.0000
     12 C          64.2787   82.0764   12.5489 C.ar    1  UNL1        0.0000
     13 C          64.3539   83.5740   12.5136 C.ar    1  UNL1       -0.0000
     14 C          64.7329   90.5727   15.7835 C.3     1  UNL1        0.1152
     15 N          64.6441   91.1152   14.3879 N.am    1  UNL1       -0.2729
     16 C          65.3441   92.3940   14.0344 C.2     1  UNL1        0.2465
     17 O          66.1328   93.1301   15.0765 O.2     1  UNL1       -0.2730
     18 C          65.2553   92.9365   12.6388 C.3     1  UNL1        0.1835
     19 N          66.4692   92.9420   11.7576 N.am    1  UNL1       -0.2439
     20 C          67.5828   91.9690   12.0088 C.2     1  UNL1        0.2744
     21 O          67.4825   90.9904   13.1413 O.2     1  UNL1       -0.2705
     22 C          68.7966   91.9745   11.1276 C.3     1  UNL1        0.2900
     23 O          68.8968   92.9530    9.9951 O.3     1  UNL1       -0.4643
     24 C          67.7833   93.9260    9.7439 C.ar    1  UNL1        0.1537
     25 C          67.8835   94.9045    8.6114 C.ar    1  UNL1        0.0504
     26 C          66.7699   95.8775    8.3602 C.ar    1  UNL1        0.0713
     27 CL         66.8702   96.8560    7.2277 Cl      1  UNL1       -0.0813
     28 C          65.5560   95.8720    9.2414 C.ar    1  UNL1        0.0696
     29 CL         64.4425   96.8450    8.9902 Cl      1  UNL1       -0.0813
     30 C          65.4558   94.8935   10.3739 C.ar    1  UNL1        0.0302
     31 C          66.5694   93.9205   10.6251 C.ar    1  UNL1        0.0894
     32 C          63.1419   91.1406   12.2683 C.3     1  UNL1        0.0968
     33 N          62.0271   90.4910   11.5033 N.3     1  UNL1       -0.2667
     34 C          60.7273   90.1850   12.1867 C.3     1  UNL1        0.1047
     35 C          59.6125   89.5354   11.4217 C.3     1  UNL1        0.1595
     36 O          59.7975   89.1918    9.9733 O.3     1  UNL1       -0.3508
     37 C          61.0972   89.4979    9.2900 C.3     1  UNL1        0.1595
     38 C          62.2120   90.1475   10.0550 C.3     1  UNL1        0.1047
@<TRIPOS>BOND
     1    14    15    1
     2    15    16   am
     3    16    17    2
     4    16    18    1
     5    18    19    1
     6    19    20   am
     7    20    21    2
     8    20    22    1
     9    22    23    1
    10    23    24    1
    11    24    25   ar
    12    25    26   ar
    13    26    27    1
    14    26    28   ar
    15    28    29    1
    16    28    30   ar
    17    30    31   ar
    18    15     1    1
    19     1    32    1
    20    32    33    1
    21    33    34    1
    22    34    35    1
    23    35    36    1
    24    36    37    1
    25    37    38    1
    26     1     2    1
    27     2     3   ar
    28     3     4   ar
    29     4     5   ar
    30     5     8    1
    31     8     9   ar
    32     9    10   ar
    33    10    11   ar
    34    11    12   ar
    35    12    13   ar
    36     5     6   ar
    37     6     7   ar
    38    31    19    1
    39    38    33    1
    40     7     2   ar
    41    31    24   ar
    42    13     8   ar
@<TRIPOS>MOLECULE
*****
 38 42 0 0 0
SMALL
GASTEIGER

@<TRIPOS>ATOM
      1 C          64.5982   90.7112   13.3748 C.3     1  UNL1        0.1139
      2 C          63.6863   90.1164   12.3430 C.ar    1  UNL1       -0.0029
      3 C          63.0831   90.9892   11.2827 C.ar    1  UNL1       -0.0026
      4 C          62.1712   90.3944   10.2508 C.ar    1  UNL1       -0.0003
      5 C          61.8625   88.9268   10.2793 C.ar    1  UNL1       -0.0000
      6 C          62.4657   88.0539   11.3398 C.ar    1  UNL1       -0.0003
      7 C          63.3776   88.6487   12.3715 C.ar    1  UNL1       -0.0026
      8 C          60.9506   88.3320    9.2476 C.ar    1  UNL1       -0.0000
      9 C          60.1117   89.2260    8.3834 C.ar    1  UNL1       -0.0000
     10 C          59.1997   88.6312    7.3515 C.ar    1  UNL1        0.0000
     11 C          59.1267   87.1424    7.1839 C.ar    1  UNL1        0.0000
     12 C          59.9657   86.2483    8.0482 C.ar    1  UNL1        0.0000
     13 C          60.8776   86.8431    9.0800 C.ar    1  UNL1       -0.0000
     14 C          63.9490   92.2036   15.3999 C.3     1  UNL1        0.1152
     15 N          64.1374   90.8435   14.7961 N.am    1  UNL1       -0.2729
     16 C          63.8650   89.6156   15.6136 C.2     1  UNL1        0.2465
     17 O          63.4042   89.7480   17.0349 O.2     1  UNL1       -0.2730
     18 C          64.0534   88.2556   15.0098 C.3     1  UNL1        0.1835
     19 N          63.4736   87.0482   15.6852 N.am    1  UNL1       -0.2439
     20 C          63.0484   87.1242   17.1216 C.2     1  UNL1        0.2744
     21 O          63.2029   88.4075   17.8827 O.2     1  UNL1       -0.2705
     22 C          62.4686   85.9169   17.7970 C.3     1  UNL1        0.2900
     23 O          62.3141   84.6335   17.0360 O.3     1  UNL1       -0.4643
     24 C          62.7393   84.5575   15.5996 C.ar    1  UNL1        0.1537
     25 C          62.5848   83.2742   14.8385 C.ar    1  UNL1        0.0504
     26 C          63.0101   83.1982   13.4021 C.ar    1  UNL1        0.0713
     27 CL         62.8556   81.9148   12.6411 Cl      1  UNL1       -0.0813
     28 C          63.5899   84.4055   12.7267 C.ar    1  UNL1        0.0696
     29 CL         64.0152   84.3295   11.2903 Cl      1  UNL1       -0.0813
     30 C          63.7444   85.6889   13.4877 C.ar    1  UNL1        0.0302
     31 C          63.3191   85.7648   14.9242 C.ar    1  UNL1        0.0894
     32 C          65.9710   91.1737   12.9852 C.3     1  UNL1        0.0968
     33 N          66.1401   92.4339   12.1895 N.3     1  UNL1       -0.2667
     34 C          66.1361   93.7645   12.8821 C.3     1  UNL1        0.1047
     35 C          66.3052   95.0247   12.0864 C.3     1  UNL1        0.1595
     36 O          66.4783   94.9544   10.5980 O.3     1  UNL1       -0.3508
     37 C          66.4823   93.6239    9.9055 C.3     1  UNL1        0.1595
     38 C          66.3132   92.3637   10.7012 C.3     1  UNL1        0.1047
@<TRIPOS>BOND
     1    14    15    1
     2    15    16   am
     3    16    17    2
     4    16    18    1
     5    18    19    1
     6    19    20   am
     7    20    21    2
     8    20    22    1
     9    22    23    1
    10    23    24    1
    11    24    25   ar
    12    25    26   ar
    13    26    27    1
    14    26    28   ar
    15    28    29    1
    16    28    30   ar
    17    30    31   ar
    18    15     1    1
    19     1    32    1
    20    32    33    1
    21    33    34    1
    22    34    35    1
    23    35    36    1
    24    36    37    1
    25    37    38    1
    26     1     2    1
    27     2     3   ar
    28     3     4   ar
    29     4     5   ar
    30     5     8    1
    31     8     9   ar
    32     9    10   ar
    33    10    11   ar
    34    11    12   ar
    35    12    13   ar
    36     5     6   ar
    37     6     7   ar
    38    31    19    1
    39    38    33    1
    40     7     2   ar
    41    31    24   ar
    42    13     8   ar
@<TRIPOS>MOLECULE
*****
 38 42 0 0 0
SMALL
GASTEIGER

@<TRIPOS>ATOM
      1 C          61.7910   89.7504   10.8952 C.3     1  UNL1        0.1139
      2 C          62.9408   90.2981   11.6877 C.ar    1  UNL1       -0.0029
      3 C          63.2365   89.7542   13.0540 C.ar    1  UNL1       -0.0026
      4 C          64.3863   90.3019   13.8465 C.ar    1  UNL1       -0.0003
      5 C          65.2403   91.3935   13.2728 C.ar    1  UNL1       -0.0000
      6 C          64.9445   91.9373   11.9064 C.ar    1  UNL1       -0.0003
      7 C          63.7948   91.3896   11.1140 C.ar    1  UNL1       -0.0026
      8 C          66.3901   91.9411   14.0653 C.ar    1  UNL1       -0.0000
      9 C          66.1545   92.5109   15.4327 C.ar    1  UNL1       -0.0000
     10 C          67.3043   93.0587   16.2252 C.ar    1  UNL1        0.0000
     11 C          68.6896   93.0366   15.6503 C.ar    1  UNL1        0.0000
     12 C          68.9251   92.4667   14.2828 C.ar    1  UNL1        0.0000
     13 C          67.7753   91.9191   13.4904 C.ar    1  UNL1       -0.0000
     14 C          59.5918   89.0824   12.1065 C.3     1  UNL1        0.1152
     15 N          60.9040   88.6972   11.4903 N.am    1  UNL1       -0.2729
     16 C          61.3293   87.2589   11.4692 C.2     1  UNL1        0.2465
     17 O          60.4423   86.2058   12.0643 O.2     1  UNL1       -0.2730
     18 C          62.6415   86.8738   10.8530 C.3     1  UNL1        0.1835
     19 N          63.0802   85.4393   10.8580 N.am    1  UNL1       -0.2439
     20 C          63.1458   84.6706    9.5716 C.2     1  UNL1        0.2744
     21 O          62.7727   85.3363    8.2802 O.2     1  UNL1       -0.2705
     22 C          63.5844   83.2362    9.5766 C.3     1  UNL1        0.2900
     23 O          63.9575   82.5705   10.8680 O.3     1  UNL1       -0.4643
     24 C          63.8919   83.3392   12.1543 C.ar    1  UNL1        0.1537
     25 C          64.2649   82.6735   13.4457 C.ar    1  UNL1        0.0504
     26 C          64.1994   83.4421   14.7321 C.ar    1  UNL1        0.0713
     27 CL         64.5724   82.7764   16.0235 Cl      1  UNL1       -0.0813
     28 C          63.7607   84.8766   14.7271 C.ar    1  UNL1        0.0696
     29 CL         63.6951   85.6453   16.0135 Cl      1  UNL1       -0.0813
     30 C          63.3876   85.5423   13.4358 C.ar    1  UNL1        0.0302
     31 C          63.4532   84.7736   12.1493 C.ar    1  UNL1        0.0894
     32 C          61.5282   90.2558    9.5076 C.3     1  UNL1        0.0968
     33 N          60.6412   89.4777    8.5814 N.3     1  UNL1       -0.2667
     34 C          60.5005   87.9936    8.7484 C.3     1  UNL1        0.1047
     35 C          59.6135   87.2155    7.8222 C.3     1  UNL1        0.1595
     36 O          58.8672   87.9215    6.7291 O.3     1  UNL1       -0.3508
     37 C          59.0080   89.4055    6.5622 C.3     1  UNL1        0.1595
     38 C          59.8950   90.1836    7.4884 C.3     1  UNL1        0.1047
@<TRIPOS>BOND
     1    14    15    1
     2    15    16   am
     3    16    17    2
     4    16    18    1
     5    18    19    1
     6    19    20   am
     7    20    21    2
     8    20    22    1
     9    22    23    1
    10    23    24    1
    11    24    25   ar
    12    25    26   ar
    13    26    27    1
    14    26    28   ar
    15    28    29    1
    16    28    30   ar
    17    30    31   ar
    18    15     1    1
    19     1    32    1
    20    32    33    1
    21    33    34    1
    22    34    35    1
    23    35    36    1
    24    36    37    1
    25    37    38    1
    26     1     2    1
    27     2     3   ar
    28     3     4   ar
    29     4     5   ar
    30     5     8    1
    31     8     9   ar
    32     9    10   ar
    33    10    11   ar
    34    11    12   ar
    35    12    13   ar
    36     5     6   ar
    37     6     7   ar
    38    31    19    1
    39    38    33    1
    40     7     2   ar
    41    31    24   ar
    42    13     8   ar
