@<TRIPOS>MOLECULE
*****
 42 45 0 0 0
SMALL
GASTEIGER

@<TRIPOS>ATOM
      1 N          62.9715   89.7027   13.6624 N.am    1  UNL1       -0.2927
      2 C          63.9634   89.1702   14.6537 C.2     1  UNL1        0.2508
      3 O          65.3718   89.6864   14.6566 O.2     1  UNL1       -0.2700
      4 H          62.0472   89.3639   13.6605 H       1  UNL1        0.1502
      5 C          63.5469   88.1216   15.6420 C.ar    1  UNL1        0.1068
      6 C          63.1389   88.5188   17.0298 C.ar    1  UNL1        0.0108
      7 C          62.7224   87.4701   18.0182 C.ar    1  UNL1        0.0210
      8 C          62.7139   86.0242   17.6187 C.ar    1  UNL1        0.1021
      9 N          63.1218   85.6271   16.2310 N.ar    1  UNL1       -0.2097
     10 C          63.5383   86.6758   15.2426 C.ar    1  UNL1        0.2340
     11 O          63.9462   86.2787   13.8549 O.3     1  UNL1       -0.4351
     12 C          63.6952   84.8814   13.3703 C.ar    1  UNL1        0.1576
     13 C          64.3051   83.7164   14.0919 C.ar    1  UNL1        0.0384
     14 C          64.0540   82.3191   13.6072 C.ar    1  UNL1        0.0070
     15 C          63.1932   82.0870   12.4010 C.ar    1  UNL1        0.0725
     16 C          62.5833   83.2522   11.6794 C.ar    1  UNL1        0.0183
     17 C          62.8344   84.6493   12.1640 C.ar    1  UNL1        0.0921
     18 CL         62.2245   85.8144   11.4424 Cl      1  UNL1       -0.0791
     19 C          62.9421   80.6899   11.9163 C.3     1  UNL1        0.4186
     20 F          62.6911   79.2928   11.4317 F       1  UNL1       -0.1659
     21 F          63.0936   81.1546   10.4982 F       1  UNL1       -0.1659
     22 F          62.7907   80.2252   13.3344 F       1  UNL1       -0.1659
     23 C          63.3880   90.7514   12.6741 C.3     1  UNL1        0.1789
     24 C          60.1809   88.6676    9.4571 C.3     1  UNL1        0.0758
     25 C          59.8715   88.3929   10.8990 C.3     1  UNL1        0.0390
     26 C          60.9119   89.0776   11.7349 C.3     1  UNL1        0.0949
     27 N          61.8643   89.7755   10.8097 N.am    1  UNL1       -0.2767
     28 C          63.0588   90.5847   11.2202 C.2     1  UNL1        0.2461
     29 O          63.9239   91.2273   10.1768 O.2     1  UNL1       -0.2730
     30 C          61.4125   89.5221    9.4020 C.3     1  UNL1        0.1091
     31 C          59.3413   86.7065    7.9742 C.3     1  UNL1        0.0859
     32 N          59.3965   88.1745    8.2775 N.3     1  UNL1       -0.2960
     33 H          58.4340   88.4833    8.4141 H       1  UNL1        0.1233
     34 C          64.1338   91.9667   13.1396 C.3     1  UNL1        0.1715
     35 O          65.5626   92.1721   12.7313 O.3     1  UNL1       -0.3467
     36 C          65.9912   93.4791   12.1333 C.3     1  UNL1        0.1687
     37 C          66.7801   93.4973   10.8576 C.ar    1  UNL1        0.0073
     38 C          67.5756   92.2926   10.4504 C.ar    1  UNL1       -0.0019
     39 C          68.3644   92.3108    9.1747 C.ar    1  UNL1       -0.0002
     40 C          68.3578   93.5337    8.3062 C.ar    1  UNL1       -0.0000
     41 C          67.5623   94.7385    8.7133 C.ar    1  UNL1       -0.0002
     42 C          66.7734   94.7203    9.9891 C.ar    1  UNL1       -0.0019
@<TRIPOS>BOND
     1    31    32    1
     2    24    32    1
     3    24    25    1
     4    25    26    1
     5    26    27    1
     6    27    28   am
     7    28    29    2
     8    28    23    1
     9    23    34    1
    10    34    35    1
    11    35    36    1
    12    36    37    1
    13    37    38   ar
    14    38    39   ar
    15    39    40   ar
    16    40    41   ar
    17    41    42   ar
    18    23     1    1
    19     1     2   am
    20     2     3    2
    21     2     5    1
    22     5     6   ar
    23     6     7   ar
    24     7     8   ar
    25     8     9   ar
    26     9    10   ar
    27    10    11    1
    28    11    12    1
    29    12    13   ar
    30    13    14   ar
    31    14    15   ar
    32    15    19    1
    33    19    20    1
    34    19    21    1
    35    19    22    1
    36    15    16   ar
    37    16    17   ar
    38    17    18    1
    39    27    30    1
    40    30    24    1
    41    42    37   ar
    42    10     5   ar
    43    17    12   ar
    44    32    33    1
    45     1     4    1
@<TRIPOS>MOLECULE
*****
 42 45 0 0 0
SMALL
GASTEIGER

@<TRIPOS>ATOM
      1 N          63.1167   89.5878   13.8277 N.am    1  UNL1       -0.2927
      2 C          64.1160   88.8934   14.7047 C.2     1  UNL1        0.2508
      3 O          65.5802   89.1773   14.5439 O.2     1  UNL1       -0.2700
      4 H          62.1558   89.4015   13.9332 H       1  UNL1        0.1502
      5 C          63.6512   87.9152   15.7426 C.ar    1  UNL1        0.1068
      6 C          63.0696   88.4110   17.0333 C.ar    1  UNL1        0.0108
      7 C          62.6049   87.4328   18.0712 C.ar    1  UNL1        0.0210
      8 C          62.7217   85.9589   17.8183 C.ar    1  UNL1        0.1021
      9 N          63.3033   85.4632   16.5276 N.ar    1  UNL1       -0.2097
     10 C          63.7681   86.4414   15.4897 C.ar    1  UNL1        0.2340
     11 O          64.3497   85.9457   14.1990 O.3     1  UNL1       -0.4351
     12 C          63.9741   84.5897   13.6788 C.ar    1  UNL1        0.1576
     13 C          64.5599   83.3582   14.3034 C.ar    1  UNL1        0.0384
     14 C          64.1843   82.0023   13.7833 C.ar    1  UNL1        0.0070
     15 C          63.2229   81.8780   12.6386 C.ar    1  UNL1        0.0725
     16 C          62.6371   83.1096   12.0140 C.ar    1  UNL1        0.0183
     17 C          63.0127   84.4654   12.5342 C.ar    1  UNL1        0.0921
     18 CL         62.4269   85.6971   11.9096 Cl      1  UNL1       -0.0791
     19 C          62.8473   80.5221   12.1185 C.3     1  UNL1        0.4186
     20 F          62.4717   79.1663   11.5983 F       1  UNL1       -0.1659
     21 F          62.6733   80.0308   13.5249 F       1  UNL1       -0.1659
     22 F          63.0213   81.0135   10.7120 F       1  UNL1       -0.1659
     23 C          63.5815   90.5660   12.7898 C.3     1  UNL1        0.1789
     24 C          66.3260   94.3614   11.0468 C.3     1  UNL1        0.0758
     25 C          65.6939   93.5184    9.9791 C.3     1  UNL1        0.0390
     26 C          64.9099   92.4305   10.6511 C.3     1  UNL1        0.0949
     27 N          65.0574   92.6011   12.1341 N.am    1  UNL1       -0.2767
     28 C          64.4383   91.7310   13.1876 C.2     1  UNL1        0.2461
     29 O          64.6762   92.0261   14.6390 O.2     1  UNL1       -0.2730
     30 C          65.9326   93.7945   12.3786 C.3     1  UNL1        0.1091
     31 C          67.2431   96.2133    9.4721 C.3     1  UNL1        0.0859
     32 N          67.1984   95.5608   10.8220 N.3     1  UNL1       -0.2960
     33 H          66.8940   96.2745   11.4841 H       1  UNL1        0.1233
     34 C          63.1893   90.3791   11.3541 C.3     1  UNL1        0.1715
     35 O          62.6556   89.0568   10.8884 O.3     1  UNL1       -0.3467
     36 C          61.2963   88.9761   10.2595 C.3     1  UNL1        0.1687
     37 C          60.9797   87.8701    9.2970 C.ar    1  UNL1        0.0073
     38 C          62.0166   86.8345    8.9770 C.ar    1  UNL1       -0.0019
     39 C          61.7000   85.7285    8.0145 C.ar    1  UNL1       -0.0002
     40 C          60.3465   85.6580    7.3720 C.ar    1  UNL1       -0.0000
     41 C          59.3095   86.6935    7.6919 C.ar    1  UNL1       -0.0002
     42 C          59.6261   87.7996    8.6544 C.ar    1  UNL1       -0.0019
@<TRIPOS>BOND
     1    31    32    1
     2    24    32    1
     3    24    25    1
     4    25    26    1
     5    26    27    1
     6    27    28   am
     7    28    29    2
     8    28    23    1
     9    23    34    1
    10    34    35    1
    11    35    36    1
    12    36    37    1
    13    37    38   ar
    14    38    39   ar
    15    39    40   ar
    16    40    41   ar
    17    41    42   ar
    18    23     1    1
    19     1     2   am
    20     2     3    2
    21     2     5    1
    22     5     6   ar
    23     6     7   ar
    24     7     8   ar
    25     8     9   ar
    26     9    10   ar
    27    10    11    1
    28    11    12    1
    29    12    13   ar
    30    13    14   ar
    31    14    15   ar
    32    15    19    1
    33    19    20    1
    34    19    21    1
    35    19    22    1
    36    15    16   ar
    37    16    17   ar
    38    17    18    1
    39    27    30    1
    40    30    24    1
    41    42    37   ar
    42    10     5   ar
    43    17    12   ar
    44    32    33    1
    45     1     4    1
@<TRIPOS>MOLECULE
*****
 42 45 0 0 0
SMALL
GASTEIGER

@<TRIPOS>ATOM
      1 N          62.7220   89.2277   11.2848 N.am    1  UNL1       -0.2927
      2 C          61.2766   89.0231   10.9404 C.2     1  UNL1        0.2508
      3 O          60.2134   89.7650   11.6950 O.2     1  UNL1       -0.2700
      4 H          63.4198   88.7407   10.7895 H       1  UNL1        0.1502
      5 C          60.8941   88.0765    9.8415 C.ar    1  UNL1        0.1068
      6 C          59.7782   88.4285    8.9029 C.ar    1  UNL1        0.0108
      7 C          59.3957   87.4820    7.8039 C.ar    1  UNL1        0.0210
      8 C          60.1292   86.1833    7.6436 C.ar    1  UNL1        0.1021
      9 N          61.2450   85.8313    8.5821 N.ar    1  UNL1       -0.2097
     10 C          61.6275   86.7779    9.6811 C.ar    1  UNL1        0.2340
     11 O          62.7433   86.4259   10.6196 O.3     1  UNL1       -0.4351
     12 C          62.7597   85.0875   11.2969 C.ar    1  UNL1        0.1576
     13 C          62.2692   84.9550   12.7082 C.ar    1  UNL1        0.0384
     14 C          62.2856   83.6167   13.3854 C.ar    1  UNL1        0.0070
     15 C          62.7925   82.4108   12.6513 C.ar    1  UNL1        0.0725
     16 C          63.2830   82.5433   11.2399 C.ar    1  UNL1        0.0183
     17 C          63.2666   83.8816   10.5628 C.ar    1  UNL1        0.0921
     18 CL         63.7571   84.0142    9.1514 Cl      1  UNL1       -0.0791
     19 C          62.8089   81.0725   13.3285 C.3     1  UNL1        0.4186
     20 F          62.8253   79.7342   14.0056 F       1  UNL1       -0.1659
     21 F          64.3059   81.0452   13.2382 F       1  UNL1       -0.1659
     22 F          61.3119   81.0999   13.4188 F       1  UNL1       -0.1659
     23 C          63.1045   90.1743   12.3837 C.3     1  UNL1        0.1789
     24 C          67.2522   92.3710   14.1006 C.3     1  UNL1        0.0758
     25 C          66.7611   91.2358   14.9493 C.3     1  UNL1        0.0390
     26 C          65.5212   90.6828   14.3114 C.3     1  UNL1        0.0949
     27 N          65.2460   91.4763   13.0685 N.am    1  UNL1       -0.2767
     28 C          64.1018   91.2636   12.1220 C.2     1  UNL1        0.2461
     29 O          63.9551   92.1405   10.9139 O.2     1  UNL1       -0.2730
     30 C          66.3158   92.5196   12.9382 C.3     1  UNL1        0.1091
     31 C          68.8732   93.5134   15.7791 C.3     1  UNL1        0.0859
     32 N          68.4665   93.2102   14.3675 N.3     1  UNL1       -0.2960
     33 H          69.2553   92.7345   13.9294 H       1  UNL1        0.1233
     34 C          62.4896   90.0315   13.7444 C.3     1  UNL1        0.1715
     35 O          63.1884   90.5952   14.9462 O.3     1  UNL1       -0.3467
     36 C          63.1716   89.8441   16.2444 C.3     1  UNL1        0.1687
     37 C          63.3693   88.3573   16.2533 C.ar    1  UNL1        0.0073
     38 C          64.1811   87.7022   15.1754 C.ar    1  UNL1       -0.0019
     39 C          64.3788   86.2153   15.1842 C.ar    1  UNL1       -0.0002
     40 C          63.7647   85.3835   16.2709 C.ar    1  UNL1       -0.0000
     41 C          62.9528   86.0385   17.3488 C.ar    1  UNL1       -0.0002
     42 C          62.7551   87.5255   17.3400 C.ar    1  UNL1       -0.0019
@<TRIPOS>BOND
     1    31    32    1
     2    24    32    1
     3    24    25    1
     4    25    26    1
     5    26    27    1
     6    27    28   am
     7    28    29    2
     8    28    23    1
     9    23    34    1
    10    34    35    1
    11    35    36    1
    12    36    37    1
    13    37    38   ar
    14    38    39   ar
    15    39    40   ar
    16    40    41   ar
    17    41    42   ar
    18    23     1    1
    19     1     2   am
    20     2     3    2
    21     2     5    1
    22     5     6   ar
    23     6     7   ar
    24     7     8   ar
    25     8     9   ar
    26     9    10   ar
    27    10    11    1
    28    11    12    1
    29    12    13   ar
    30    13    14   ar
    31    14    15   ar
    32    15    19    1
    33    19    20    1
    34    19    21    1
    35    19    22    1
    36    15    16   ar
    37    16    17   ar
    38    17    18    1
    39    27    30    1
    40    30    24    1
    41    42    37   ar
    42    10     5   ar
    43    17    12   ar
    44    32    33    1
    45     1     4    1
@<TRIPOS>MOLECULE
*****
 42 45 0 0 0
SMALL
GASTEIGER

@<TRIPOS>ATOM
      1 N          62.9581   89.5942   13.4005 N.am    1  UNL1       -0.2927
      2 C          63.9327   89.2278   14.4803 C.2     1  UNL1        0.2508
      3 O          65.2761   89.8929   14.5354 O.2     1  UNL1       -0.2700
      4 H          62.0764   89.1577   13.3643 H       1  UNL1        0.1502
      5 C          63.5638   88.1964   15.5050 C.ar    1  UNL1        0.1068
      6 C          63.1515   88.6221   16.8831 C.ar    1  UNL1        0.0108
      7 C          62.7827   87.5907   17.9078 C.ar    1  UNL1        0.0210
      8 C          62.8262   86.1335   17.5545 C.ar    1  UNL1        0.1021
      9 N          63.2384   85.7078   16.1765 N.ar    1  UNL1       -0.2097
     10 C          63.6073   86.7392   15.1518 C.ar    1  UNL1        0.2340
     11 O          64.0195   86.3136   13.7739 O.3     1  UNL1       -0.4351
     12 C          63.7472   84.9138   13.3083 C.ar    1  UNL1        0.1576
     13 C          64.3112   83.7484   14.0657 C.ar    1  UNL1        0.0384
     14 C          64.0389   82.3487   13.6002 C.ar    1  UNL1        0.0070
     15 C          63.2024   82.1145   12.3773 C.ar    1  UNL1        0.0725
     16 C          62.6384   83.2800   11.6199 C.ar    1  UNL1        0.0183
     17 C          62.9108   84.6796   12.0854 C.ar    1  UNL1        0.0921
     18 CL         62.3467   85.8451   11.3280 Cl      1  UNL1       -0.0791
     19 C          62.9301   80.7148   11.9117 C.3     1  UNL1        0.4186
     20 F          62.6577   79.3152   11.4462 F       1  UNL1       -0.1659
     21 F          62.7567   80.2751   13.3352 F       1  UNL1       -0.1659
     22 F          63.1034   81.1546   10.4882 F       1  UNL1       -0.1659
     23 C          63.3270   90.6257   12.3758 C.3     1  UNL1        0.1789
     24 C          59.9834   88.4235    9.3846 C.3     1  UNL1        0.0758
     25 C          59.7902   88.1314   10.8432 C.3     1  UNL1        0.0390
     26 C          60.8595   88.8552   11.6065 C.3     1  UNL1        0.0949
     27 N          61.7136   89.5947   10.6196 N.am    1  UNL1       -0.2767
     28 C          62.9007   90.4507   10.9483 C.2     1  UNL1        0.2461
     29 O          63.6616   91.1316    9.8495 O.2     1  UNL1       -0.2730
     30 C          61.1721   89.3278    9.2465 C.3     1  UNL1        0.1091
     31 C          59.3521   86.5120    7.7421 C.3     1  UNL1        0.0859
     32 N          59.1365   87.9027    8.2614 N.3     1  UNL1       -0.2960
     33 H          58.1674   87.9527    8.5756 H       1  UNL1        0.1233
     34 C          64.1220   91.8322   12.7785 C.3     1  UNL1        0.1715
     35 O          65.0847   92.4534   11.8103 O.3     1  UNL1       -0.3467
     36 C          66.1913   93.3326   12.3127 C.3     1  UNL1        0.1687
     37 C          66.9384   92.9596   13.5588 C.ar    1  UNL1        0.0073
     38 C          66.4837   93.4801   14.8901 C.ar    1  UNL1       -0.0019
     39 C          67.2308   93.1071   16.1362 C.ar    1  UNL1       -0.0002
     40 C          68.4326   92.2136   16.0510 C.ar    1  UNL1       -0.0000
     41 C          68.8874   91.6931   14.7198 C.ar    1  UNL1       -0.0002
     42 C          68.1403   92.0661   13.4736 C.ar    1  UNL1       -0.0019
@<TRIPOS>BOND
     1    31    32    1
     2    24    32    1
     3    24    25    1
     4    25    26    1
     5    26    27    1
     6    27    28   am
     7    28    29    2
     8    28    23    1
     9    23    34    1
    10    34    35    1
    11    35    36    1
    12    36    37    1
    13    37    38   ar
    14    38    39   ar
    15    39    40   ar
    16    40    41   ar
    17    41    42   ar
    18    23     1    1
    19     1     2   am
    20     2     3    2
    21     2     5    1
    22     5     6   ar
    23     6     7   ar
    24     7     8   ar
    25     8     9   ar
    26     9    10   ar
    27    10    11    1
    28    11    12    1
    29    12    13   ar
    30    13    14   ar
    31    14    15   ar
    32    15    19    1
    33    19    20    1
    34    19    21    1
    35    19    22    1
    36    15    16   ar
    37    16    17   ar
    38    17    18    1
    39    27    30    1
    40    30    24    1
    41    42    37   ar
    42    10     5   ar
    43    17    12   ar
    44    32    33    1
    45     1     4    1
@<TRIPOS>MOLECULE
*****
 42 45 0 0 0
SMALL
GASTEIGER

@<TRIPOS>ATOM
      1 N          63.1380   89.1909   12.0719 N.am    1  UNL1       -0.2927
      2 C          61.6936   89.0469   11.6937 C.2     1  UNL1        0.2508
      3 O          60.6327   89.7179   12.5149 O.2     1  UNL1       -0.2700
      4 H          63.8342   88.7505   11.5329 H       1  UNL1        0.1502
      5 C          61.3101   88.2318   10.4943 C.ar    1  UNL1        0.1068
      6 C          60.3260   88.7757    9.5014 C.ar    1  UNL1        0.0108
      7 C          59.9425   87.9606    8.3020 C.ar    1  UNL1        0.0210
      8 C          60.5430   86.6016    8.0955 C.ar    1  UNL1        0.1021
      9 N          61.5270   86.0577    9.0885 N.ar    1  UNL1       -0.2097
     10 C          61.9106   86.8728   10.2878 C.ar    1  UNL1        0.2340
     11 O          62.8946   86.3290   11.2807 O.3     1  UNL1       -0.4351
     12 C          62.7855   84.9059   11.7424 C.ar    1  UNL1        0.1576
     13 C          62.2021   84.5970   13.0893 C.ar    1  UNL1        0.0384
     14 C          62.0930   83.1740   13.5510 C.ar    1  UNL1        0.0070
     15 C          62.5675   82.0599   12.6657 C.ar    1  UNL1        0.0725
     16 C          63.1510   82.3688   11.3188 C.ar    1  UNL1        0.0183
     17 C          63.2600   83.7918   10.8572 C.ar    1  UNL1        0.0921
     18 CL         63.8435   84.1008    9.5102 Cl      1  UNL1       -0.0791
     19 C          62.4585   80.6369   13.1273 C.3     1  UNL1        0.4186
     20 F          62.3495   79.2138   13.5889 F       1  UNL1       -0.1659
     21 F          62.1231   81.1111   14.5102 F       1  UNL1       -0.1659
     22 F          62.7939   80.1626   11.7444 F       1  UNL1       -0.1659
     23 C          63.5215   90.0060   13.2713 C.3     1  UNL1        0.1789
     24 C          66.3168   93.4041   10.9015 C.3     1  UNL1        0.0758
     25 C          64.9886   93.1417   10.2555 C.3     1  UNL1        0.0390
     26 C          64.2712   92.1093   11.0738 C.3     1  UNL1        0.0949
     27 N          65.1560   91.7336   12.2253 N.am    1  UNL1       -0.2767
     28 C          64.8331   90.7333   13.2955 C.2     1  UNL1        0.2461
     29 O          65.8219   90.4604   14.3900 O.2     1  UNL1       -0.2730
     30 C          66.4202   92.5338   12.1188 C.3     1  UNL1        0.1091
     31 C          67.7009   94.4289    8.9562 C.3     1  UNL1        0.0859
     32 N          67.3586   94.3675   10.4153 N.3     1  UNL1       -0.2960
     33 H          67.0452   95.3003   10.6837 H       1  UNL1        0.1233
     34 C          62.5934   90.0938   14.4464 C.3     1  UNL1        0.1715
     35 O          63.1370   90.4029   15.8099 O.3     1  UNL1       -0.3467
     36 C          63.0676   89.3712   16.8965 C.3     1  UNL1        0.1687
     37 C          63.3336   87.9294   16.5798 C.ar    1  UNL1        0.0073
     38 C          64.2702   87.5666   15.4657 C.ar    1  UNL1       -0.0019
     39 C          64.5361   86.1248   15.1490 C.ar    1  UNL1       -0.0002
     40 C          63.8656   85.0457   15.9464 C.ar    1  UNL1       -0.0000
     41 C          62.9290   85.4084   17.0605 C.ar    1  UNL1       -0.0002
     42 C          62.6630   86.8503   17.3773 C.ar    1  UNL1       -0.0019
@<TRIPOS>BOND
     1    31    32    1
     2    24    32    1
     3    24    25    1
     4    25    26    1
     5    26    27    1
     6    27    28   am
     7    28    29    2
     8    28    23    1
     9    23    34    1
    10    34    35    1
    11    35    36    1
    12    36    37    1
    13    37    38   ar
    14    38    39   ar
    15    39    40   ar
    16    40    41   ar
    17    41    42   ar
    18    23     1    1
    19     1     2   am
    20     2     3    2
    21     2     5    1
    22     5     6   ar
    23     6     7   ar
    24     7     8   ar
    25     8     9   ar
    26     9    10   ar
    27    10    11    1
    28    11    12    1
    29    12    13   ar
    30    13    14   ar
    31    14    15   ar
    32    15    19    1
    33    19    20    1
    34    19    21    1
    35    19    22    1
    36    15    16   ar
    37    16    17   ar
    38    17    18    1
    39    27    30    1
    40    30    24    1
    41    42    37   ar
    42    10     5   ar
    43    17    12   ar
    44    32    33    1
    45     1     4    1
@<TRIPOS>MOLECULE
*****
 42 45 0 0 0
SMALL
GASTEIGER

@<TRIPOS>ATOM
      1 N          63.2261   89.5802   11.4649 N.am    1  UNL1       -0.2927
      2 C          61.7682   89.2295   11.5018 C.2     1  UNL1        0.2508
      3 O          60.8890   89.7898   12.5803 O.2     1  UNL1       -0.2700
      4 H          63.8031   89.2124   10.7570 H       1  UNL1        0.1502
      5 C          61.1893   88.3186   10.4601 C.ar    1  UNL1        0.1068
      6 C          60.1442   88.8303    9.5134 C.ar    1  UNL1        0.0108
      7 C          59.5653   87.9194    8.4717 C.ar    1  UNL1        0.0210
      8 C          60.0316   86.4968    8.3767 C.ar    1  UNL1        0.1021
      9 N          61.0766   85.9852    9.3232 N.ar    1  UNL1       -0.2097
     10 C          61.6555   86.8961   10.3649 C.ar    1  UNL1        0.2340
     11 O          62.7006   86.3845   11.3115 O.3     1  UNL1       -0.4351
     12 C          62.6629   84.9567   11.7700 C.ar    1  UNL1        0.1576
     13 C          62.1580   84.6227   13.1423 C.ar    1  UNL1        0.0384
     14 C          62.1203   83.1949   13.6007 C.ar    1  UNL1        0.0070
     15 C          62.5876   82.1012   12.6868 C.ar    1  UNL1        0.0725
     16 C          63.0926   82.4353   11.3143 C.ar    1  UNL1        0.0183
     17 C          63.1302   83.8630   10.8560 C.ar    1  UNL1        0.0921
     18 CL         63.6352   84.1971    9.4835 Cl      1  UNL1       -0.0791
     19 C          62.5500   80.6735   13.1451 C.3     1  UNL1        0.4186
     20 F          62.5123   79.2458   13.6035 F       1  UNL1       -0.1659
     21 F          62.1805   81.1267   14.5264 F       1  UNL1       -0.1659
     22 F          62.9194   80.2203   11.7638 F       1  UNL1       -0.1659
     23 C          63.8050   90.4911   12.5066 C.3     1  UNL1        0.1789
     24 C          63.7740   86.9812   16.0642 C.3     1  UNL1        0.0758
     25 C          64.1836   86.4812   14.7106 C.3     1  UNL1        0.0390
     26 C          64.1447   87.6390   13.7576 C.3     1  UNL1        0.0949
     27 N          63.7112   88.8544   14.5223 N.am    1  UNL1       -0.2767
     28 C          63.5373   90.2342   13.9600 C.2     1  UNL1        0.2461
     29 O          63.0957   91.3571   14.8511 O.2     1  UNL1       -0.2730
     30 C          63.4821   88.4479   15.9478 C.3     1  UNL1        0.1091
     31 C          62.7206   86.5592   18.4014 C.3     1  UNL1        0.0859
     32 N          63.6740   86.1589   17.3147 N.3     1  UNL1       -0.2960
     33 H          63.4131   85.2158   17.0268 H       1  UNL1        0.1233
     34 C          64.6516   91.6589   12.0950 C.3     1  UNL1        0.1715
     35 O          65.3238   92.5024   13.1374 O.3     1  UNL1       -0.3467
     36 C          66.3389   93.5293   12.7312 C.3     1  UNL1        0.1687
     37 C          66.9423   93.4852   11.3586 C.ar    1  UNL1        0.0073
     38 C          66.6955   94.6076   10.3945 C.ar    1  UNL1       -0.0019
     39 C          67.2989   94.5635    9.0219 C.ar    1  UNL1       -0.0002
     40 C          68.1491   93.3972    8.6134 C.ar    1  UNL1       -0.0000
     41 C          68.3959   92.2749    9.5775 C.ar    1  UNL1       -0.0002
     42 C          67.7925   92.3189   10.9502 C.ar    1  UNL1       -0.0019
@<TRIPOS>BOND
     1    31    32    1
     2    24    32    1
     3    24    25    1
     4    25    26    1
     5    26    27    1
     6    27    28   am
     7    28    29    2
     8    28    23    1
     9    23    34    1
    10    34    35    1
    11    35    36    1
    12    36    37    1
    13    37    38   ar
    14    38    39   ar
    15    39    40   ar
    16    40    41   ar
    17    41    42   ar
    18    23     1    1
    19     1     2   am
    20     2     3    2
    21     2     5    1
    22     5     6   ar
    23     6     7   ar
    24     7     8   ar
    25     8     9   ar
    26     9    10   ar
    27    10    11    1
    28    11    12    1
    29    12    13   ar
    30    13    14   ar
    31    14    15   ar
    32    15    19    1
    33    19    20    1
    34    19    21    1
    35    19    22    1
    36    15    16   ar
    37    16    17   ar
    38    17    18    1
    39    27    30    1
    40    30    24    1
    41    42    37   ar
    42    10     5   ar
    43    17    12   ar
    44    32    33    1
    45     1     4    1
@<TRIPOS>MOLECULE
*****
 42 45 0 0 0
SMALL
GASTEIGER

@<TRIPOS>ATOM
      1 N          64.8990   90.2386   13.9259 N.am    1  UNL1       -0.2927
      2 C          65.0883   91.4342   14.8118 C.2     1  UNL1        0.2508
      3 O          63.9039   92.0679   15.4795 O.2     1  UNL1       -0.2700
      4 H          65.6764   89.8227   13.4877 H       1  UNL1        0.1502
      5 C          66.4618   91.9960   15.0301 C.ar    1  UNL1        0.1068
      6 C          66.8910   92.4151   16.4050 C.ar    1  UNL1        0.0108
      7 C          68.2645   92.9770   16.6232 C.ar    1  UNL1        0.0210
      8 C          69.2089   93.1198   15.4666 C.ar    1  UNL1        0.1021
      9 N          68.7798   92.7008   14.0918 N.ar    1  UNL1       -0.2097
     10 C          67.4062   92.1389   13.8735 C.ar    1  UNL1        0.2340
     11 O          66.9770   91.7198   12.4987 O.3     1  UNL1       -0.4351
     12 C          66.8189   92.7468   11.4168 C.ar    1  UNL1        0.1576
     13 C          65.8658   93.8902   11.6015 C.ar    1  UNL1        0.0384
     14 C          65.7076   94.9171   10.5196 C.ar    1  UNL1        0.0070
     15 C          66.5026   94.8005    9.2529 C.ar    1  UNL1        0.0725
     16 C          67.4558   93.6570    9.0682 C.ar    1  UNL1        0.0183
     17 C          67.6139   92.6302   10.1501 C.ar    1  UNL1        0.0921
     18 CL         68.5670   91.4867    9.9654 Cl      1  UNL1       -0.0791
     19 C          66.3445   95.8273    8.1710 C.3     1  UNL1        0.4186
     20 F          66.1864   96.8542    7.0891 F       1  UNL1       -0.1659
     21 F          67.2209   95.0109    7.2681 F       1  UNL1       -0.1659
     22 F          65.4681   96.6438    9.0740 F       1  UNL1       -0.1659
     23 C          63.5255   89.6768   13.7077 C.3     1  UNL1        0.1789
     24 C          61.8129   87.0061    9.8462 C.3     1  UNL1        0.0758
     25 C          62.3734   86.1793   10.9654 C.3     1  UNL1        0.0390
     26 C          62.8430   87.1132   12.0412 C.3     1  UNL1        0.0949
     27 N          62.5727   88.5170   11.5870 N.am    1  UNL1       -0.2767
     28 C          62.8843   89.7675   12.3547 C.2     1  UNL1        0.2461
     29 O          62.5547   91.1086   11.7693 O.2     1  UNL1       -0.2730
     30 C          61.9361   88.4508   10.2304 C.3     1  UNL1        0.1091
     31 C          59.7559   86.5811    8.3172 C.3     1  UNL1        0.0859
     32 N          61.2314   86.4803    8.5673 N.3     1  UNL1       -0.2960
     33 H          61.6937   86.9787    7.8069 H       1  UNL1        0.1233
     34 C          62.7931   89.0242   14.8424 C.3     1  UNL1        0.1715
     35 O          63.5468   88.5604   16.0536 O.3     1  UNL1       -0.3467
     36 C          63.2179   87.2381   16.6808 C.3     1  UNL1        0.1687
     37 C          63.5036   85.9652   15.9406 C.ar    1  UNL1        0.0073
     38 C          62.5836   84.7895   16.0873 C.ar    1  UNL1       -0.0019
     39 C          62.8693   83.5166   15.3471 C.ar    1  UNL1       -0.0002
     40 C          64.0750   83.4193   14.4601 C.ar    1  UNL1       -0.0000
     41 C          64.9950   84.5948   14.3133 C.ar    1  UNL1       -0.0002
     42 C          64.7093   85.8678   15.0536 C.ar    1  UNL1       -0.0019
@<TRIPOS>BOND
     1    31    32    1
     2    24    32    1
     3    24    25    1
     4    25    26    1
     5    26    27    1
     6    27    28   am
     7    28    29    2
     8    28    23    1
     9    23    34    1
    10    34    35    1
    11    35    36    1
    12    36    37    1
    13    37    38   ar
    14    38    39   ar
    15    39    40   ar
    16    40    41   ar
    17    41    42   ar
    18    23     1    1
    19     1     2   am
    20     2     3    2
    21     2     5    1
    22     5     6   ar
    23     6     7   ar
    24     7     8   ar
    25     8     9   ar
    26     9    10   ar
    27    10    11    1
    28    11    12    1
    29    12    13   ar
    30    13    14   ar
    31    14    15   ar
    32    15    19    1
    33    19    20    1
    34    19    21    1
    35    19    22    1
    36    15    16   ar
    37    16    17   ar
    38    17    18    1
    39    27    30    1
    40    30    24    1
    41    42    37   ar
    42    10     5   ar
    43    17    12   ar
    44    32    33    1
    45     1     4    1
@<TRIPOS>MOLECULE
*****
 42 45 0 0 0
SMALL
GASTEIGER

@<TRIPOS>ATOM
      1 N          62.8786   89.9511   14.0468 N.am    1  UNL1       -0.2927
      2 C          63.6404   88.6746   14.2466 C.2     1  UNL1        0.2508
      3 O          64.6089   88.2076   13.2007 O.2     1  UNL1       -0.2700
      4 H          62.2429   90.2576   14.7333 H       1  UNL1        0.1502
      5 C          63.4337   87.8650   15.4923 C.ar    1  UNL1        0.1068
      6 C          62.7844   88.4879   16.6926 C.ar    1  UNL1        0.0108
      7 C          62.5778   87.6783   17.9383 C.ar    1  UNL1        0.0210
      8 C          63.0203   86.2457   17.9837 C.ar    1  UNL1        0.1021
      9 N          63.6695   85.6228   16.7835 N.ar    1  UNL1       -0.2097
     10 C          63.8761   86.4325   15.5378 C.ar    1  UNL1        0.2340
     11 O          64.5253   85.8096   14.3376 O.3     1  UNL1       -0.4351
     12 C          64.0810   84.4584   13.8612 C.ar    1  UNL1        0.1576
     13 C          64.5926   83.2199   14.5352 C.ar    1  UNL1        0.0384
     14 C          64.1483   81.8687   14.0588 C.ar    1  UNL1        0.0070
     15 C          63.1925   81.7560   12.9083 C.ar    1  UNL1        0.0725
     16 C          62.6809   82.9946   12.2342 C.ar    1  UNL1        0.0183
     17 C          63.1252   84.3457   12.7107 C.ar    1  UNL1        0.0921
     18 CL         62.6136   85.5843   12.0366 Cl      1  UNL1       -0.0791
     19 C          62.7482   80.4049   12.4319 C.3     1  UNL1        0.4186
     20 F          62.3039   79.0538   11.9554 F       1  UNL1       -0.1659
     21 F          62.6224   79.9448   13.8540 F       1  UNL1       -0.1659
     22 F          62.8739   80.8650   11.0098 F       1  UNL1       -0.1659
     23 C          63.0852   90.7608   12.8011 C.3     1  UNL1        0.1789
     24 C          66.7255   93.0889   15.3120 C.3     1  UNL1        0.0758
     25 C          65.7484   92.3567   16.1834 C.3     1  UNL1        0.0390
     26 C          64.7250   91.7148   15.2943 C.3     1  UNL1        0.0949
     27 N          65.0694   92.0504   13.8734 N.am    1  UNL1       -0.2767
     28 C          64.3107   91.6134   12.6555 C.2     1  UNL1        0.2461
     29 O          64.7775   92.0290   11.2919 O.2     1  UNL1       -0.2730
     30 C          66.3058   92.8996   13.8844 C.3     1  UNL1        0.1091
     31 C          69.2787   93.2515   15.7646 C.3     1  UNL1        0.0859
     32 N          67.9136   93.8729   15.7852 N.3     1  UNL1       -0.2960
     33 H          67.9629   94.7111   15.2062 H       1  UNL1        0.1233
     34 C          62.0665   90.7178   11.7010 C.3     1  UNL1        0.1715
     35 O          60.9819   89.6818   11.7233 O.3     1  UNL1       -0.3467
     36 C          60.2271   89.3590   10.4678 C.3     1  UNL1        0.1687
     37 C          60.6220   88.1725    9.6395 C.ar    1  UNL1        0.0073
     38 C          59.5885   87.4435    8.8328 C.ar    1  UNL1       -0.0019
     39 C          59.9833   86.2570    8.0045 C.ar    1  UNL1       -0.0002
     40 C          61.4116   85.7993    7.9828 C.ar    1  UNL1       -0.0000
     41 C          62.4451   86.5281    8.7894 C.ar    1  UNL1       -0.0002
     42 C          62.0503   87.7148    9.6178 C.ar    1  UNL1       -0.0019
@<TRIPOS>BOND
     1    31    32    1
     2    24    32    1
     3    24    25    1
     4    25    26    1
     5    26    27    1
     6    27    28   am
     7    28    29    2
     8    28    23    1
     9    23    34    1
    10    34    35    1
    11    35    36    1
    12    36    37    1
    13    37    38   ar
    14    38    39   ar
    15    39    40   ar
    16    40    41   ar
    17    41    42   ar
    18    23     1    1
    19     1     2   am
    20     2     3    2
    21     2     5    1
    22     5     6   ar
    23     6     7   ar
    24     7     8   ar
    25     8     9   ar
    26     9    10   ar
    27    10    11    1
    28    11    12    1
    29    12    13   ar
    30    13    14   ar
    31    14    15   ar
    32    15    19    1
    33    19    20    1
    34    19    21    1
    35    19    22    1
    36    15    16   ar
    37    16    17   ar
    38    17    18    1
    39    27    30    1
    40    30    24    1
    41    42    37   ar
    42    10     5   ar
    43    17    12   ar
    44    32    33    1
    45     1     4    1
@<TRIPOS>MOLECULE
*****
 42 45 0 0 0
SMALL
GASTEIGER

@<TRIPOS>ATOM
      1 N          63.1763   89.1466   12.6313 N.am    1  UNL1       -0.2927
      2 C          63.9363   89.0918   13.9233 C.2     1  UNL1        0.2508
      3 O          64.2514   87.7670   14.5525 O.2     1  UNL1       -0.2700
      4 H          62.9694   90.0160   12.2183 H       1  UNL1        0.1502
      5 C          64.3812   90.3617   14.5862 C.ar    1  UNL1        0.1068
      6 C          64.0141   90.6300   16.0157 C.ar    1  UNL1        0.0108
      7 C          64.4590   91.8999   16.6785 C.ar    1  UNL1        0.0210
      8 C          65.2709   92.9015   15.9119 C.ar    1  UNL1        0.1021
      9 N          65.6379   92.6332   14.4825 N.ar    1  UNL1       -0.2097
     10 C          65.1930   91.3633   13.8196 C.ar    1  UNL1        0.2340
     11 O          65.5600   91.0950   12.3902 O.3     1  UNL1       -0.4351
     12 C          65.9936   92.2238   11.5026 C.ar    1  UNL1        0.1576
     13 C          64.9852   93.2166   11.0051 C.ar    1  UNL1        0.0384
     14 C          65.4188   94.3454   10.1175 C.ar    1  UNL1        0.0070
     15 C          66.8607   94.4814    9.7273 C.ar    1  UNL1        0.0725
     16 C          67.8691   93.4885   10.2248 C.ar    1  UNL1        0.0183
     17 C          67.4356   92.3598   11.1124 C.ar    1  UNL1        0.0921
     18 CL         68.4440   91.3669   11.6100 Cl      1  UNL1       -0.0791
     19 C          67.2943   95.6101    8.8397 C.3     1  UNL1        0.4186
     20 F          67.7279   96.7389    7.9521 F       1  UNL1       -0.1659
     21 F          67.5382   94.6385    7.7233 F       1  UNL1       -0.1659
     22 F          67.0505   96.5817    9.9562 F       1  UNL1       -0.1659
     23 C          62.7314   87.8767   11.9684 C.3     1  UNL1        0.1789
     24 C          61.4456   85.6095    7.7042 C.3     1  UNL1        0.0758
     25 C          62.5717   84.9446    8.4390 C.3     1  UNL1        0.0390
     26 C          62.8407   85.7329    9.6864 C.3     1  UNL1        0.0949
     27 N          61.8808   86.8851    9.7227 N.am    1  UNL1       -0.2767
     28 C          61.7977   87.9300   10.7957 C.2     1  UNL1        0.2461
     29 O          60.7809   89.0283   10.6958 O.2     1  UNL1       -0.2730
     30 C          61.0186   86.8088    8.4976 C.3     1  UNL1        0.1091
     31 C          61.5871   84.1685    5.5470 C.3     1  UNL1        0.0859
     32 N          60.8510   85.1550    6.4043 N.3     1  UNL1       -0.2960
     33 H          59.9470   84.7369    6.6243 H       1  UNL1        0.1233
     34 C          63.2201   86.5534   12.4783 C.3     1  UNL1        0.1715
     35 O          62.2421   85.5437   13.0020 O.3     1  UNL1       -0.3467
     36 C          62.7223   84.4056   13.8528 C.3     1  UNL1        0.1687
     37 C          62.6976   83.0053   13.3157 C.ar    1  UNL1        0.0073
     38 C          62.2503   81.8734   14.1927 C.ar    1  UNL1       -0.0019
     39 C          62.2256   80.4731   13.6556 C.ar    1  UNL1       -0.0002
     40 C          62.6481   80.2046   12.2416 C.ar    1  UNL1       -0.0000
     41 C          63.0953   81.3364   11.3647 C.ar    1  UNL1       -0.0002
     42 C          63.1200   82.7368   11.9017 C.ar    1  UNL1       -0.0019
@<TRIPOS>BOND
     1    31    32    1
     2    24    32    1
     3    24    25    1
     4    25    26    1
     5    26    27    1
     6    27    28   am
     7    28    29    2
     8    28    23    1
     9    23    34    1
    10    34    35    1
    11    35    36    1
    12    36    37    1
    13    37    38   ar
    14    38    39   ar
    15    39    40   ar
    16    40    41   ar
    17    41    42   ar
    18    23     1    1
    19     1     2   am
    20     2     3    2
    21     2     5    1
    22     5     6   ar
    23     6     7   ar
    24     7     8   ar
    25     8     9   ar
    26     9    10   ar
    27    10    11    1
    28    11    12    1
    29    12    13   ar
    30    13    14   ar
    31    14    15   ar
    32    15    19    1
    33    19    20    1
    34    19    21    1
    35    19    22    1
    36    15    16   ar
    37    16    17   ar
    38    17    18    1
    39    27    30    1
    40    30    24    1
    41    42    37   ar
    42    10     5   ar
    43    17    12   ar
    44    32    33    1
    45     1     4    1
