@<TRIPOS>MOLECULE
*****
 39 43 0 0 0
SMALL
GASTEIGER

@<TRIPOS>ATOM
      1 C          62.7636   85.9205   12.2956 C.cat   1  UNL1        0.3756
      2 N          63.5024   86.8665   13.1952 N.2     1  UNL1       -0.0826
      3 C          63.5064   88.3364   12.8968 C.3     1  UNL1        0.2640
      4 C          62.7717   88.8605   11.6986 C.ar    1  UNL1        0.0615
      5 C          62.7757   90.3305   11.4001 C.ar    1  UNL1        0.0031
      6 C          62.0410   90.8545   10.2020 C.ar    1  UNL1        0.0002
      7 C          61.3022   89.9085    9.3024 C.ar    1  UNL1        0.0071
      8 C          61.2981   88.4386    9.6008 C.ar    1  UNL1        0.0816
      9 C          62.0329   87.9146   10.7990 C.ar    1  UNL1        0.1133
     10 N          62.0289   86.4445   11.0975 N.pl3   1  UNL1       -0.2049
     11 H          61.5440   85.8236   10.5070 H       1  UNL1        0.2512
     12 C          62.9339   79.8115   10.8487 C.3     1  UNL1        0.0496
     13 C          62.8349   80.5492   12.1510 C.2     1  UNL1        0.0669
     14 N          62.7472   79.9263   13.5127 N.2     1  UNL1       -0.1568
     15 N          62.6642   81.0315   14.5236 N.2     1  UNL1       -0.1536
     16 C          62.7006   82.3374   13.7866 C.2     1  UNL1        0.1037
     17 C          62.8061   82.0393   12.3203 C.3     1  UNL1        0.1160
     18 C          62.8425   83.3454   11.5832 C.3     1  UNL1        0.1790
     19 N          62.7596   84.4505   12.5941 N.pl3   1  UNL1       -0.1918
     20 C          62.6719   83.8276   13.9558 C.3     1  UNL1        0.2110
     21 C          60.5594   87.4926    8.7012 C.2     1  UNL1        0.2453
     22 N          59.2960   87.9342    8.0238 N.am    1  UNL1       -0.3252
     23 O          61.0839   86.1050    8.4789 O.2     1  UNL1       -0.2703
     24 H          58.9517   88.8450    8.1697 H       1  UNL1        0.1453
     25 H          58.8111   87.3134    7.4333 H       1  UNL1        0.1453
     26 N          64.2452   89.2824   13.7964 N.3     1  UNL1       -0.2571
     27 H          65.1690   88.8792   13.9527 H       1  UNL1        0.1270
     28 C          64.4598   90.7056   13.3742 C.3     1  UNL1        0.1006
     29 C          65.3981   91.5840   14.1475 C.ar    1  UNL1        0.0251
     30 C          65.2903   91.6645   15.6415 C.ar    1  UNL1        0.1374
     31 F          64.2443   90.8667   16.3621 F       1  UNL1       -0.2045
     32 C          66.2286   92.5429   16.4149 C.ar    1  UNL1        0.0293
     33 C          67.2746   93.3409   15.6942 C.ar    1  UNL1        0.0022
     34 C          67.3823   93.2603   14.2003 C.ar    1  UNL1        0.0037
     35 C          66.4441   92.3819   13.4270 C.ar    1  UNL1        0.0709
     36 C          66.5518   92.3014   11.9330 C.3     1  UNL1        0.4184
     37 F          66.6596   92.2209   10.4390 F       1  UNL1       -0.1659
     38 F          65.2579   93.0482   11.7993 F       1  UNL1       -0.1659
     39 F          67.8458   91.5546   12.0666 F       1  UNL1       -0.1659
@<TRIPOS>BOND
     1    12    13    1
     2    13    14    2
     3    14    15    1
     4    15    16    2
     5    16    17    1
     6    17    18    1
     7    18    19    1
     8    19     1    1
     9     1     2    2
    10     2     3    1
    11     3    26    1
    12    26    28    1
    13    28    29    1
    14    29    30   ar
    15    30    31    1
    16    30    32   ar
    17    32    33   ar
    18    33    34   ar
    19    34    35   ar
    20    35    36    1
    21    36    37    1
    22    36    38    1
    23    36    39    1
    24     3     4    1
    25     4     5   ar
    26     5     6   ar
    27     6     7   ar
    28     7     8   ar
    29     8    21    1
    30    21    22   am
    31    21    23    2
    32     8     9   ar
    33     9    10    1
    34    19    20    1
    35    17    13    1
    36    10     1    1
    37    20    16    1
    38    35    29   ar
    39     9     4   ar
    40    26    27    1
    41    22    24    1
    42    22    25    1
    43    10    11    1
@<TRIPOS>MOLECULE
*****
 39 43 0 0 0
SMALL
GASTEIGER

@<TRIPOS>ATOM
      1 C          62.3453   86.3069   11.8312 C.cat   1  UNL1        0.3756
      2 N          62.7820   87.5749   12.5031 N.2     1  UNL1       -0.0826
      3 C          62.4190   88.9028   11.9074 C.3     1  UNL1        0.2640
      4 C          61.6193   88.9627   10.6397 C.ar    1  UNL1        0.0615
      5 C          61.2563   90.2906   10.0439 C.ar    1  UNL1        0.0031
      6 C          60.4566   90.3504    8.7764 C.ar    1  UNL1        0.0002
      7 C          60.0199   89.0824    8.1045 C.ar    1  UNL1        0.0071
      8 C          60.3828   87.7545    8.7002 C.ar    1  UNL1        0.0816
      9 C          61.1825   87.6947    9.9678 C.ar    1  UNL1        0.1133
     10 N          61.5456   86.3668   10.5637 N.pl3   1  UNL1       -0.2049
     11 H          61.2589   85.5345   10.1227 H       1  UNL1        0.2512
     12 C          62.8118   80.0449   11.9369 C.3     1  UNL1        0.0496
     13 C          63.1927   81.1130   12.9187 C.2     1  UNL1        0.0669
     14 N          63.8255   80.8921   14.2606 N.2     1  UNL1       -0.1568
     15 N          64.0315   82.2323   14.9022 N.2     1  UNL1       -0.1536
     16 C          63.5261   83.2814   13.9568 C.2     1  UNL1        0.1037
     17 C          63.0076   82.5897   12.7309 C.3     1  UNL1        0.1160
     18 C          62.5022   83.6389   11.7854 C.3     1  UNL1        0.1790
     19 N          62.7083   84.9790   12.4271 N.pl3   1  UNL1       -0.1918
     20 C          63.3411   84.7581   13.7690 C.3     1  UNL1        0.2110
     21 C          59.9461   86.4865    8.0284 C.2     1  UNL1        0.2453
     22 N          58.5154   86.3122    7.6130 N.am    1  UNL1       -0.3252
     23 O          60.9401   85.3928    7.7720 O.2     1  UNL1       -0.2703
     24 H          57.8630   87.0300    7.7813 H       1  UNL1        0.1453
     25 H          58.2288   85.4799    7.1720 H       1  UNL1        0.1453
     26 N          62.8557   90.1708   12.5792 N.3     1  UNL1       -0.2571
     27 H          63.0464   89.9372   13.5536 H       1  UNL1        0.1270
     28 C          64.0543   90.9151   12.0699 C.3     1  UNL1        0.1006
     29 C          64.9130   91.6948   13.0211 C.ar    1  UNL1        0.0251
     30 C          65.6688   92.8964   12.5364 C.ar    1  UNL1        0.1374
     31 F          65.5660   93.3184   11.1007 F       1  UNL1       -0.2045
     32 C          66.5275   93.6761   13.4876 C.ar    1  UNL1        0.0293
     33 C          66.6304   93.2541   14.9234 C.ar    1  UNL1        0.0022
     34 C          65.8745   92.0525   15.4080 C.ar    1  UNL1        0.0037
     35 C          65.0159   91.2728   14.4568 C.ar    1  UNL1        0.0709
     36 C          64.2600   90.0712   14.9414 C.3     1  UNL1        0.4184
     37 F          63.5042   88.8695   15.4259 F       1  UNL1       -0.1659
     38 F          63.2225   90.9685   15.5482 F       1  UNL1       -0.1659
     39 F          65.2976   89.1739   14.3345 F       1  UNL1       -0.1659
@<TRIPOS>BOND
     1    12    13    1
     2    13    14    2
     3    14    15    1
     4    15    16    2
     5    16    17    1
     6    17    18    1
     7    18    19    1
     8    19     1    1
     9     1     2    2
    10     2     3    1
    11     3    26    1
    12    26    28    1
    13    28    29    1
    14    29    30   ar
    15    30    31    1
    16    30    32   ar
    17    32    33   ar
    18    33    34   ar
    19    34    35   ar
    20    35    36    1
    21    36    37    1
    22    36    38    1
    23    36    39    1
    24     3     4    1
    25     4     5   ar
    26     5     6   ar
    27     6     7   ar
    28     7     8   ar
    29     8    21    1
    30    21    22   am
    31    21    23    2
    32     8     9   ar
    33     9    10    1
    34    19    20    1
    35    17    13    1
    36    10     1    1
    37    20    16    1
    38    35    29   ar
    39     9     4   ar
    40    26    27    1
    41    22    24    1
    42    22    25    1
    43    10    11    1
@<TRIPOS>MOLECULE
*****
 39 43 0 0 0
SMALL
GASTEIGER

@<TRIPOS>ATOM
      1 C          63.5524   88.6954   13.3036 C.cat   1  UNL1        0.3756
      2 N          63.7614   87.2618   13.6923 N.2     1  UNL1       -0.0826
      3 C          63.2135   86.1635   12.8301 C.3     1  UNL1        0.2640
      4 C          62.4565   86.4987   11.5792 C.ar    1  UNL1        0.0615
      5 C          61.9086   85.4004   10.7171 C.ar    1  UNL1        0.0031
      6 C          61.1516   85.7356    9.4663 C.ar    1  UNL1        0.0002
      7 C          60.9425   87.1692    9.0777 C.ar    1  UNL1        0.0071
      8 C          61.4904   88.2676    9.9398 C.ar    1  UNL1        0.0816
      9 C          62.2474   87.9323   11.1906 C.ar    1  UNL1        0.1133
     10 N          62.7954   89.0307   12.0529 N.pl3   1  UNL1       -0.2049
     11 H          62.6582   89.9716   11.7978 H       1  UNL1        0.2512
     12 C          67.6679   93.1553   14.9204 C.3     1  UNL1        0.0496
     13 C          66.3996   92.6606   15.5502 C.2     1  UNL1        0.0669
     14 N          65.7869   93.1741   16.8194 N.2     1  UNL1       -0.1568
     15 N          64.5299   92.3965   17.0750 N.2     1  UNL1       -0.1536
     16 C          64.3658   91.4023   15.9638 C.2     1  UNL1        0.1037
     17 C          65.5214   91.5656   15.0214 C.3     1  UNL1        0.1160
     18 C          65.3573   90.5714   13.9102 C.3     1  UNL1        0.1790
     19 N          64.1003   89.7938   14.1659 N.pl3   1  UNL1       -0.1918
     20 C          63.4876   90.3073   15.4350 C.3     1  UNL1        0.2110
     21 C          61.2813   89.7012    9.5512 C.2     1  UNL1        0.2453
     22 N          60.0097   90.1166    8.8727 N.am    1  UNL1       -0.3252
     23 O          62.3439   90.7195    9.8411 O.2     1  UNL1       -0.2703
     24 H          59.3123   89.4482    8.6825 H       1  UNL1        0.1453
     25 H          59.8725   91.0575    8.6177 H       1  UNL1        0.1453
     26 N          63.4226   84.7298   13.2187 N.3     1  UNL1       -0.2571
     27 H          62.4966   84.3161   13.3270 H       1  UNL1        0.1270
     28 C          64.2031   83.8157   12.3215 C.3     1  UNL1        0.1006
     29 C          63.6731   82.4504   11.9975 C.ar    1  UNL1        0.0251
     30 C          63.8206   81.8982   10.6106 C.ar    1  UNL1        0.1374
     31 F          64.4982   82.7113    9.5478 F       1  UNL1       -0.2045
     32 C          63.2906   80.5329   10.2867 C.ar    1  UNL1        0.0293
     33 C          62.6130   79.7197   11.3497 C.ar    1  UNL1        0.0022
     34 C          62.4655   80.2720   12.7365 C.ar    1  UNL1        0.0037
     35 C          62.9955   81.6373   13.0604 C.ar    1  UNL1        0.0709
     36 C          62.8480   82.1895   14.4473 C.3     1  UNL1        0.4184
     37 F          62.7005   82.7417   15.8341 F       1  UNL1       -0.1659
     38 F          61.3666   82.3068   14.2430 F       1  UNL1       -0.1659
     39 F          64.3294   82.0722   14.6515 F       1  UNL1       -0.1659
@<TRIPOS>BOND
     1    12    13    1
     2    13    14    2
     3    14    15    1
     4    15    16    2
     5    16    17    1
     6    17    18    1
     7    18    19    1
     8    19     1    1
     9     1     2    2
    10     2     3    1
    11     3    26    1
    12    26    28    1
    13    28    29    1
    14    29    30   ar
    15    30    31    1
    16    30    32   ar
    17    32    33   ar
    18    33    34   ar
    19    34    35   ar
    20    35    36    1
    21    36    37    1
    22    36    38    1
    23    36    39    1
    24     3     4    1
    25     4     5   ar
    26     5     6   ar
    27     6     7   ar
    28     7     8   ar
    29     8    21    1
    30    21    22   am
    31    21    23    2
    32     8     9   ar
    33     9    10    1
    34    19    20    1
    35    17    13    1
    36    10     1    1
    37    20    16    1
    38    35    29   ar
    39     9     4   ar
    40    26    27    1
    41    22    24    1
    42    22    25    1
    43    10    11    1
@<TRIPOS>MOLECULE
*****
 39 43 0 0 0
SMALL
GASTEIGER

@<TRIPOS>ATOM
      1 C          62.7302   88.4228   11.9356 C.cat   1  UNL1        0.3756
      2 N          63.1792   86.9920   11.9676 N.2     1  UNL1       -0.0826
      3 C          62.6648   86.0214   10.9462 C.3     1  UNL1        0.2640
      4 C          61.7013   86.4818    9.8926 C.ar    1  UNL1        0.0615
      5 C          61.1869   85.5112    8.8712 C.ar    1  UNL1        0.0031
      6 C          60.2235   85.9716    7.8177 C.ar    1  UNL1        0.0002
      7 C          59.7745   87.4024    7.7856 C.ar    1  UNL1        0.0071
      8 C          60.2889   88.3730    8.8071 C.ar    1  UNL1        0.0816
      9 C          61.2523   87.9126    9.8606 C.ar    1  UNL1        0.1133
     10 N          61.7668   88.8832   10.8821 N.pl3   1  UNL1       -0.2049
     11 H          61.4721   89.8223   10.8611 H       1  UNL1        0.2512
     12 C          66.4819   92.9767   14.0872 C.3     1  UNL1        0.0496
     13 C          65.3518   92.2084   14.7057 C.2     1  UNL1        0.0669
     14 N          64.8282   92.3803   16.1008 N.2     1  UNL1       -0.1568
     15 N          63.6997   91.4114   16.2951 N.2     1  UNL1       -0.1536
     16 C          63.5259   90.6405   15.0201 C.2     1  UNL1        0.1037
     17 C          64.5470   91.1331   14.0378 C.3     1  UNL1        0.1160
     18 C          64.3732   90.3623   12.7627 C.3     1  UNL1        0.1790
     19 N          63.2447   89.3934   12.9571 N.pl3   1  UNL1       -0.1918
     20 C          62.7211   89.5653   14.3521 C.3     1  UNL1        0.2110
     21 C          59.8399   89.8038    8.7750 C.2     1  UNL1        0.2453
     22 N          59.4657   90.4434    7.4709 N.am    1  UNL1       -0.3252
     23 O          59.7652   90.5951   10.0471 O.2     1  UNL1       -0.2703
     24 H          59.5147   89.9241    6.6360 H       1  UNL1        0.1453
     25 H          59.1710   91.3826    7.4499 H       1  UNL1        0.1453
     26 N          63.1138   84.5906   10.9782 N.3     1  UNL1       -0.2571
     27 H          63.8663   84.5027   10.2953 H       1  UNL1        0.1270
     28 C          63.6178   83.9911   12.2575 C.3     1  UNL1        0.1006
     29 C          63.1268   82.6444   12.6993 C.ar    1  UNL1        0.0251
     30 C          63.0627   81.5108   11.7190 C.ar    1  UNL1        0.1374
     31 F          63.4898   81.7239   10.2970 F       1  UNL1       -0.2045
     32 C          62.5717   80.1641   12.1609 C.ar    1  UNL1        0.0293
     33 C          62.1446   79.9510   13.5830 C.ar    1  UNL1        0.0022
     34 C          62.2087   81.0846   14.5632 C.ar    1  UNL1        0.0037
     35 C          62.6997   82.4313   14.1213 C.ar    1  UNL1        0.0709
     36 C          62.7638   83.5649   15.1016 C.3     1  UNL1        0.4184
     37 F          62.8278   84.6985   16.0818 F       1  UNL1       -0.1659
     38 F          61.3763   83.9807   14.7115 F       1  UNL1       -0.1659
     39 F          64.1512   83.1492   15.4917 F       1  UNL1       -0.1659
@<TRIPOS>BOND
     1    12    13    1
     2    13    14    2
     3    14    15    1
     4    15    16    2
     5    16    17    1
     6    17    18    1
     7    18    19    1
     8    19     1    1
     9     1     2    2
    10     2     3    1
    11     3    26    1
    12    26    28    1
    13    28    29    1
    14    29    30   ar
    15    30    31    1
    16    30    32   ar
    17    32    33   ar
    18    33    34   ar
    19    34    35   ar
    20    35    36    1
    21    36    37    1
    22    36    38    1
    23    36    39    1
    24     3     4    1
    25     4     5   ar
    26     5     6   ar
    27     6     7   ar
    28     7     8   ar
    29     8    21    1
    30    21    22   am
    31    21    23    2
    32     8     9   ar
    33     9    10    1
    34    19    20    1
    35    17    13    1
    36    10     1    1
    37    20    16    1
    38    35    29   ar
    39     9     4   ar
    40    26    27    1
    41    22    24    1
    42    22    25    1
    43    10    11    1
@<TRIPOS>MOLECULE
*****
 39 43 0 0 0
SMALL
GASTEIGER

@<TRIPOS>ATOM
      1 C          63.0970   88.6163   12.7698 C.cat   1  UNL1        0.3756
      2 N          63.5979   87.2041   12.8379 N.2     1  UNL1       -0.0826
      3 C          63.0937   86.1816   11.8631 C.3     1  UNL1        0.2640
      4 C          62.0885   86.5713   10.8201 C.ar    1  UNL1        0.0615
      5 C          61.5843   85.5488    9.8454 C.ar    1  UNL1        0.0031
      6 C          60.5792   85.9385    8.8024 C.ar    1  UNL1        0.0002
      7 C          60.0782   87.3508    8.7343 C.ar    1  UNL1        0.0071
      8 C          60.5824   88.3733    9.7091 C.ar    1  UNL1        0.0816
      9 C          61.5876   87.9835   10.7520 C.ar    1  UNL1        0.1133
     10 N          62.0918   89.0061   11.7268 N.pl3   1  UNL1       -0.2049
     11 H          61.7630   89.9330   11.6821 H       1  UNL1        0.2512
     12 C          67.0703   92.9918   14.8935 C.3     1  UNL1        0.0496
     13 C          65.8026   92.4105   15.4457 C.2     1  UNL1        0.0669
     14 N          65.1531   92.7858   16.7447 N.2     1  UNL1       -0.1568
     15 N          63.9109   91.9591   16.8978 N.2     1  UNL1       -0.1536
     16 C          63.7926   91.0728   15.6934 C.2     1  UNL1        0.1037
     17 C          64.9618   91.3519   14.7960 C.3     1  UNL1        0.1160
     18 C          64.8434   90.4656   13.5915 C.3     1  UNL1        0.1790
     19 N          63.6012   89.6389   13.7446 N.pl3   1  UNL1       -0.1918
     20 C          62.9518   90.0142   15.0436 C.3     1  UNL1        0.2110
     21 C          60.0814   89.7855    9.6409 C.2     1  UNL1        0.2453
     22 N          59.7187   90.3895    8.3168 N.am    1  UNL1       -0.3252
     23 O          59.9432   90.5937   10.8970 O.2     1  UNL1       -0.2703
     24 H          59.8094   89.8591    7.4923 H       1  UNL1        0.1453
     25 H          59.3899   91.3164    8.2720 H       1  UNL1        0.1453
     26 N          63.5947   84.7694   11.9313 N.3     1  UNL1       -0.2571
     27 H          64.5736   84.7901   11.6453 H       1  UNL1        0.1270
     28 C          63.5379   84.0151   13.2265 C.3     1  UNL1        0.1006
     29 C          62.9481   82.6365   13.2664 C.ar    1  UNL1        0.0251
     30 C          62.0619   82.2325   14.4072 C.ar    1  UNL1        0.1374
     31 F          61.7654   83.2071   15.5082 F       1  UNL1       -0.2045
     32 C          61.4722   80.8539   14.4470 C.ar    1  UNL1        0.0293
     33 C          61.7687   79.8792   13.3460 C.ar    1  UNL1        0.0022
     34 C          62.6549   80.2832   12.2052 C.ar    1  UNL1        0.0037
     35 C          63.2446   81.6618   12.1654 C.ar    1  UNL1        0.0709
     36 C          64.1308   82.0658   11.0245 C.3     1  UNL1        0.4184
     37 F          65.0170   82.4698    9.8838 F       1  UNL1       -0.1659
     38 F          62.9362   82.1320   10.1199 F       1  UNL1       -0.1659
     39 F          65.3254   81.9996   11.9292 F       1  UNL1       -0.1659
@<TRIPOS>BOND
     1    12    13    1
     2    13    14    2
     3    14    15    1
     4    15    16    2
     5    16    17    1
     6    17    18    1
     7    18    19    1
     8    19     1    1
     9     1     2    2
    10     2     3    1
    11     3    26    1
    12    26    28    1
    13    28    29    1
    14    29    30   ar
    15    30    31    1
    16    30    32   ar
    17    32    33   ar
    18    33    34   ar
    19    34    35   ar
    20    35    36    1
    21    36    37    1
    22    36    38    1
    23    36    39    1
    24     3     4    1
    25     4     5   ar
    26     5     6   ar
    27     6     7   ar
    28     7     8   ar
    29     8    21    1
    30    21    22   am
    31    21    23    2
    32     8     9   ar
    33     9    10    1
    34    19    20    1
    35    17    13    1
    36    10     1    1
    37    20    16    1
    38    35    29   ar
    39     9     4   ar
    40    26    27    1
    41    22    24    1
    42    22    25    1
    43    10    11    1
@<TRIPOS>MOLECULE
*****
 39 43 0 0 0
SMALL
GASTEIGER

@<TRIPOS>ATOM
      1 C          62.3091   86.8726   11.6309 C.cat   1  UNL1        0.3756
      2 N          63.0009   88.0682   12.2158 N.2     1  UNL1       -0.0826
      3 C          63.8293   87.9222   13.4577 C.3     1  UNL1        0.2640
      4 C          63.9660   86.5807   14.1148 C.ar    1  UNL1        0.0615
      5 C          64.7945   86.4348   15.3567 C.ar    1  UNL1        0.0031
      6 C          64.9311   85.0933   16.0137 C.ar    1  UNL1        0.0002
      7 C          64.2394   83.8977   15.4288 C.ar    1  UNL1        0.0071
      8 C          63.4109   84.0437   14.1869 C.ar    1  UNL1        0.0816
      9 C          63.2743   85.3851   13.5299 C.ar    1  UNL1        0.1133
     10 N          62.4458   85.5311   12.2879 N.pl3   1  UNL1       -0.2049
     11 H          61.9918   84.7465   11.9040 H       1  UNL1        0.2512
     12 C          59.4588   90.0484    7.0231 C.3     1  UNL1        0.0496
     13 C          59.5544   88.5870    7.3473 C.2     1  UNL1        0.0669
     14 N          58.9310   87.4681    6.5668 N.2     1  UNL1       -0.1568
     15 N          59.2814   86.1775    7.2461 N.2     1  UNL1       -0.1536
     16 C          60.1215   86.4987    8.4466 C.2     1  UNL1        0.1037
     17 C          60.2901   87.9879    8.5091 C.3     1  UNL1        0.1160
     18 C          61.1302   88.3093    9.7097 C.3     1  UNL1        0.1790
     19 N          61.4806   87.0186   10.3890 N.pl3   1  UNL1       -0.1918
     20 C          60.8572   85.8997    9.6084 C.3     1  UNL1        0.2110
     21 C          62.7192   82.8481   13.6020 C.2     1  UNL1        0.2453
     22 N          62.1800   81.7778   14.5040 N.am    1  UNL1       -0.3252
     23 O          62.5666   82.7228   12.1151 O.2     1  UNL1       -0.2703
     24 H          62.2801   81.8600   15.4799 H       1  UNL1        0.1453
     25 H          61.7259   80.9931   14.1201 H       1  UNL1        0.1453
     26 N          64.5211   89.1178   14.0426 N.3     1  UNL1       -0.2571
     27 H          65.4743   89.1132   13.6797 H       1  UNL1        0.1270
     28 C          63.9730   90.4933   13.8028 C.3     1  UNL1        0.1006
     29 C          64.6556   91.4145   12.8356 C.ar    1  UNL1        0.0251
     30 C          64.1222   91.5679   11.4420 C.ar    1  UNL1        0.1374
     31 F          62.9062   90.8002   11.0157 F       1  UNL1       -0.2045
     32 C          64.8048   92.4892   10.4749 C.ar    1  UNL1        0.0293
     33 C          66.0209   93.2570   10.9013 C.ar    1  UNL1        0.0022
     34 C          66.5542   93.1035   12.2949 C.ar    1  UNL1        0.0037
     35 C          65.8716   92.1823   13.2620 C.ar    1  UNL1        0.0709
     36 C          66.4051   92.0288   14.6556 C.3     1  UNL1        0.4184
     37 F          66.9384   91.8754   16.0491 F       1  UNL1       -0.1659
     38 F          67.2634   90.8857   14.2012 F       1  UNL1       -0.1659
     39 F          65.5467   93.1720   15.1099 F       1  UNL1       -0.1659
@<TRIPOS>BOND
     1    12    13    1
     2    13    14    2
     3    14    15    1
     4    15    16    2
     5    16    17    1
     6    17    18    1
     7    18    19    1
     8    19     1    1
     9     1     2    2
    10     2     3    1
    11     3    26    1
    12    26    28    1
    13    28    29    1
    14    29    30   ar
    15    30    31    1
    16    30    32   ar
    17    32    33   ar
    18    33    34   ar
    19    34    35   ar
    20    35    36    1
    21    36    37    1
    22    36    38    1
    23    36    39    1
    24     3     4    1
    25     4     5   ar
    26     5     6   ar
    27     6     7   ar
    28     7     8   ar
    29     8    21    1
    30    21    22   am
    31    21    23    2
    32     8     9   ar
    33     9    10    1
    34    19    20    1
    35    17    13    1
    36    10     1    1
    37    20    16    1
    38    35    29   ar
    39     9     4   ar
    40    26    27    1
    41    22    24    1
    42    22    25    1
    43    10    11    1
@<TRIPOS>MOLECULE
*****
 39 43 0 0 0
SMALL
GASTEIGER

@<TRIPOS>ATOM
      1 C          62.0649   87.6260   11.3428 C.cat   1  UNL1        0.3756
      2 N          62.4945   88.8762   12.0516 N.2     1  UNL1       -0.0826
      3 C          63.3964   88.7884   13.2469 C.3     1  UNL1        0.2640
      4 C          63.8689   87.4504   13.7333 C.ar    1  UNL1        0.0615
      5 C          64.7709   87.3626   14.9286 C.ar    1  UNL1        0.0031
      6 C          65.2433   86.0246   15.4149 C.ar    1  UNL1        0.0002
      7 C          64.8137   84.7744   14.7061 C.ar    1  UNL1        0.0071
      8 C          63.9117   84.8622   13.5108 C.ar    1  UNL1        0.0816
      9 C          63.4393   86.2002   13.0245 C.ar    1  UNL1        0.1133
     10 N          62.5373   86.2880   11.8292 N.pl3   1  UNL1       -0.2049
     11 H          62.2553   85.4675   11.3639 H       1  UNL1        0.2512
     12 C          59.4782   90.4214    6.3491 C.3     1  UNL1        0.0496
     13 C          59.3030   89.0641    6.9632 C.2     1  UNL1        0.0669
     14 N          58.3868   87.9843    6.4688 N.2     1  UNL1       -0.1568
     15 N          58.5308   86.8012    7.3796 N.2     1  UNL1       -0.1536
     16 C          59.5362   87.1498    8.4368 C.2     1  UNL1        0.1037
     17 C          60.0134   88.5484    8.1795 C.3     1  UNL1        0.1160
     18 C          61.0188   88.8970    9.2368 C.3     1  UNL1        0.1790
     19 N          61.1628   87.7138   10.1475 N.pl3   1  UNL1       -0.1918
     20 C          60.2465   86.6340    9.6531 C.3     1  UNL1        0.2110
     21 C          63.4821   83.6120   12.8020 C.2     1  UNL1        0.2453
     22 N          62.9557   82.4477   13.5875 N.am    1  UNL1       -0.3252
     23 O          63.5790   83.5262   11.3076 O.2     1  UNL1       -0.2703
     24 H          62.8921   82.5040   14.5683 H       1  UNL1        0.1453
     25 H          62.6737   81.6271   13.1222 H       1  UNL1        0.1453
     26 N          63.8260   90.0386   13.9558 N.3     1  UNL1       -0.2571
     27 H          64.2461   89.7471   14.8384 H       1  UNL1        0.1270
     28 C          64.7983   90.9751   13.3019 C.3     1  UNL1        0.1006
     29 C          65.7801   91.7410   14.1383 C.ar    1  UNL1        0.0251
     30 C          65.5403   91.9109   15.6093 C.ar    1  UNL1        0.1374
     31 F          64.3188   91.3149   16.2438 F       1  UNL1       -0.2045
     32 C          66.5221   92.6768   16.4456 C.ar    1  UNL1        0.0293
     33 C          67.7436   93.2728   15.8110 C.ar    1  UNL1        0.0022
     34 C          67.9833   93.1029   14.3401 C.ar    1  UNL1        0.0037
     35 C          67.0016   92.3370   13.5037 C.ar    1  UNL1        0.0709
     36 C          67.2413   92.1671   12.0327 C.3     1  UNL1        0.4184
     37 F          67.4811   91.9972   10.5618 F       1  UNL1       -0.1659
     38 F          66.0722   93.0598   11.7390 F       1  UNL1       -0.1659
     39 F          68.4104   91.2745   12.3264 F       1  UNL1       -0.1659
@<TRIPOS>BOND
     1    12    13    1
     2    13    14    2
     3    14    15    1
     4    15    16    2
     5    16    17    1
     6    17    18    1
     7    18    19    1
     8    19     1    1
     9     1     2    2
    10     2     3    1
    11     3    26    1
    12    26    28    1
    13    28    29    1
    14    29    30   ar
    15    30    31    1
    16    30    32   ar
    17    32    33   ar
    18    33    34   ar
    19    34    35   ar
    20    35    36    1
    21    36    37    1
    22    36    38    1
    23    36    39    1
    24     3     4    1
    25     4     5   ar
    26     5     6   ar
    27     6     7   ar
    28     7     8   ar
    29     8    21    1
    30    21    22   am
    31    21    23    2
    32     8     9   ar
    33     9    10    1
    34    19    20    1
    35    17    13    1
    36    10     1    1
    37    20    16    1
    38    35    29   ar
    39     9     4   ar
    40    26    27    1
    41    22    24    1
    42    22    25    1
    43    10    11    1
@<TRIPOS>MOLECULE
*****
 39 43 0 0 0
SMALL
GASTEIGER

@<TRIPOS>ATOM
      1 C          62.2849   86.7897   11.5731 C.cat   1  UNL1        0.3756
      2 N          62.9713   87.9888   12.1570 N.2     1  UNL1       -0.0826
      3 C          63.7905   87.8500   13.4058 C.3     1  UNL1        0.2640
      4 C          63.9234   86.5119   14.0707 C.ar    1  UNL1        0.0615
      5 C          64.7427   86.3731   15.3195 C.ar    1  UNL1        0.0031
      6 C          64.8756   85.0351   15.9844 C.ar    1  UNL1        0.0002
      7 C          64.1892   83.8360   15.4004 C.ar    1  UNL1        0.0071
      8 C          63.3699   83.9748   14.1517 C.ar    1  UNL1        0.0816
      9 C          63.2371   85.3128   13.4868 C.ar    1  UNL1        0.1133
     10 N          62.4178   85.4517   12.2379 N.pl3   1  UNL1       -0.2049
     11 H          61.9673   84.6647   11.8547 H       1  UNL1        0.2512
     12 C          59.3174   89.9462    7.0264 C.3     1  UNL1        0.0496
     13 C          59.4923   88.4828    7.3056 C.2     1  UNL1        0.0669
     14 N          58.9442   87.3562    6.4808 N.2     1  UNL1       -0.1568
     15 N          59.3592   86.0662    7.1241 N.2     1  UNL1       -0.1536
     16 C          60.1638   86.3956    8.3464 C.2     1  UNL1        0.1037
     17 C          60.2460   87.8892    8.4586 C.3     1  UNL1        0.1160
     18 C          61.0507   88.2186    9.6810 C.3     1  UNL1        0.1790
     19 N          61.4656   86.9286   10.3242 N.pl3   1  UNL1       -0.1918
     20 C          60.9175   85.8020    9.4995 C.3     1  UNL1        0.2110
     21 C          62.6836   82.7757   13.5677 C.2     1  UNL1        0.2453
     22 N          62.1327   81.7128   14.4714 N.am    1  UNL1       -0.3252
     23 O          62.5481   82.6394   12.0801 O.2     1  UNL1       -0.2703
     24 H          62.2216   81.8022   15.4478 H       1  UNL1        0.1453
     25 H          61.6822   80.9257   14.0882 H       1  UNL1        0.1453
     26 N          64.4769   89.0491   13.9897 N.3     1  UNL1       -0.2571
     27 H          65.4087   89.0853   13.5765 H       1  UNL1        0.1270
     28 C          63.8757   90.4131   13.8220 C.3     1  UNL1        0.1006
     29 C          64.7504   91.5805   13.4730 C.ar    1  UNL1        0.0251
     30 C          65.6017   92.2219   14.5286 C.ar    1  UNL1        0.1374
     31 F          65.5781   91.6957   15.9331 F       1  UNL1       -0.2045
     32 C          66.4764   93.3894   14.1797 C.ar    1  UNL1        0.0293
     33 C          66.5000   93.9155   12.7751 C.ar    1  UNL1        0.0022
     34 C          65.6488   93.2742   11.7196 C.ar    1  UNL1        0.0037
     35 C          64.7740   92.1067   12.0686 C.ar    1  UNL1        0.0709
     36 C          63.9228   91.4654   11.0130 C.3     1  UNL1        0.4184
     37 F          63.0716   90.8240    9.9575 F       1  UNL1       -0.1659
     38 F          65.0672   91.5380   10.0460 F       1  UNL1       -0.1659
     39 F          62.7785   91.3927   11.9800 F       1  UNL1       -0.1659
@<TRIPOS>BOND
     1    12    13    1
     2    13    14    2
     3    14    15    1
     4    15    16    2
     5    16    17    1
     6    17    18    1
     7    18    19    1
     8    19     1    1
     9     1     2    2
    10     2     3    1
    11     3    26    1
    12    26    28    1
    13    28    29    1
    14    29    30   ar
    15    30    31    1
    16    30    32   ar
    17    32    33   ar
    18    33    34   ar
    19    34    35   ar
    20    35    36    1
    21    36    37    1
    22    36    38    1
    23    36    39    1
    24     3     4    1
    25     4     5   ar
    26     5     6   ar
    27     6     7   ar
    28     7     8   ar
    29     8    21    1
    30    21    22   am
    31    21    23    2
    32     8     9   ar
    33     9    10    1
    34    19    20    1
    35    17    13    1
    36    10     1    1
    37    20    16    1
    38    35    29   ar
    39     9     4   ar
    40    26    27    1
    41    22    24    1
    42    22    25    1
    43    10    11    1
@<TRIPOS>MOLECULE
*****
 39 43 0 0 0
SMALL
GASTEIGER

@<TRIPOS>ATOM
      1 C          62.4974   89.6709   10.3217 C.cat   1  UNL1        0.3756
      2 N          62.4555   88.3834   11.0903 N.2     1  UNL1       -0.0826
      3 C          61.5455   87.2758   10.6490 C.3     1  UNL1        0.2640
      4 C          60.6772   87.4555    9.4390 C.ar    1  UNL1        0.0615
      5 C          59.7671   86.3479    8.9977 C.ar    1  UNL1        0.0031
      6 C          58.8989   86.5277    7.7878 C.ar    1  UNL1        0.0002
      7 C          58.9408   87.8151    7.0193 C.ar    1  UNL1        0.0071
      8 C          59.8509   88.9228    7.4606 C.ar    1  UNL1        0.0816
      9 C          60.7191   88.7430    8.6705 C.ar    1  UNL1        0.1133
     10 N          61.6292   89.8507    9.1118 N.pl3   1  UNL1       -0.2049
     11 H          61.6567   90.6957    8.6074 H       1  UNL1        0.2512
     12 C          66.1988   92.7351   14.3655 C.3     1  UNL1        0.0496
     13 C          65.7858   93.0108   12.9501 C.2     1  UNL1        0.0669
     14 N          66.2086   94.1876   12.1216 N.2     1  UNL1       -0.1568
     15 N          65.5615   94.0622   10.7741 N.2     1  UNL1       -0.1536
     16 C          64.7388   92.8080   10.7699 C.2     1  UNL1        0.1037
     17 C          64.8774   92.1582   12.1148 C.3     1  UNL1        0.1160
     18 C          64.0546   90.9039   12.1106 C.3     1  UNL1        0.1790
     19 N          63.4076   90.7786   10.7631 N.pl3   1  UNL1       -0.1918
     20 C          63.8304   91.9553    9.9345 C.3     1  UNL1        0.2110
     21 C          59.8928   90.2102    6.6920 C.2     1  UNL1        0.2453
     22 N          58.6158   90.9041    6.3210 N.am    1  UNL1       -0.3252
     23 O          61.2117   90.8038    6.2944 O.2     1  UNL1       -0.2703
     24 H          57.7501   90.5145    6.5819 H       1  UNL1        0.1453
     25 H          58.6433   91.7491    5.8165 H       1  UNL1        0.1453
     26 N          61.5036   85.9883   11.4176 N.3     1  UNL1       -0.2571
     27 H          60.6946   85.4685   11.0773 H       1  UNL1        0.1270
     28 C          62.6723   85.0492   11.3719 C.3     1  UNL1        0.1006
     29 C          63.2902   84.5582   12.6475 C.ar    1  UNL1        0.0251
     30 C          63.7228   85.5386   13.6972 C.ar    1  UNL1        0.1374
     31 F          63.5374   87.0098   13.4714 F       1  UNL1       -0.2045
     32 C          64.3407   85.0476   14.9728 C.ar    1  UNL1        0.0293
     33 C          64.5261   83.5763   15.1986 C.ar    1  UNL1        0.0022
     34 C          64.0935   82.5960   14.1489 C.ar    1  UNL1        0.0037
     35 C          63.4756   83.0870   12.8733 C.ar    1  UNL1        0.0709
     36 C          63.0430   82.1067   11.8236 C.3     1  UNL1        0.4184
     37 F          62.6104   81.1264   10.7739 F       1  UNL1       -0.1659
     38 F          64.3375   82.3155   11.0951 F       1  UNL1       -0.1659
     39 F          61.7486   81.8978   12.5521 F       1  UNL1       -0.1659
@<TRIPOS>BOND
     1    12    13    1
     2    13    14    2
     3    14    15    1
     4    15    16    2
     5    16    17    1
     6    17    18    1
     7    18    19    1
     8    19     1    1
     9     1     2    2
    10     2     3    1
    11     3    26    1
    12    26    28    1
    13    28    29    1
    14    29    30   ar
    15    30    31    1
    16    30    32   ar
    17    32    33   ar
    18    33    34   ar
    19    34    35   ar
    20    35    36    1
    21    36    37    1
    22    36    38    1
    23    36    39    1
    24     3     4    1
    25     4     5   ar
    26     5     6   ar
    27     6     7   ar
    28     7     8   ar
    29     8    21    1
    30    21    22   am
    31    21    23    2
    32     8     9   ar
    33     9    10    1
    34    19    20    1
    35    17    13    1
    36    10     1    1
    37    20    16    1
    38    35    29   ar
    39     9     4   ar
    40    26    27    1
    41    22    24    1
    42    22    25    1
    43    10    11    1
