@<TRIPOS>MOLECULE
*****
 34 37 0 0 0
SMALL
GASTEIGER

@<TRIPOS>ATOM
      1 N          63.0600   90.9297   11.5180 N.am    1  UNL1       -0.2438
      2 C          63.6162   91.5931   10.2930 C.3     1  UNL1        0.1009
      3 C          64.7845   92.5266   10.4105 C.3     1  UNL1        0.0662
      4 C          65.3966   92.7967   11.7530 C.3     1  UNL1        0.1600
      5 O          64.8405   92.1333   12.9780 O.3     1  UNL1       -0.4374
      6 C          63.6722   91.1999   12.8606 C.2     1  UNL1        0.4051
      7 O          63.1161   90.5365   14.0856 O.2     1  UNL1       -0.2262
      8 C          66.2707   93.6577   10.8902 C.ar    1  UNL1        0.0138
      9 C          66.2262   95.1504   11.0307 C.ar    1  UNL1       -0.0010
     10 C          67.1003   96.0114   10.1678 C.ar    1  UNL1       -0.0002
     11 C          68.0190   95.3797    9.1644 C.ar    1  UNL1       -0.0000
     12 C          68.0636   93.8870    9.0238 C.ar    1  UNL1       -0.0002
     13 C          67.1895   93.0259    9.8867 C.ar    1  UNL1       -0.0010
     14 C          61.8918   89.9963   11.4006 C.3     1  UNL1        0.1011
     15 C          60.5418   90.5285   11.0208 C.3     1  UNL1        0.0265
     16 C          62.4370   85.5993   12.1876 C.ar    1  UNL1        0.0030
     17 C          63.3540   86.5960   12.8324 C.ar    1  UNL1       -0.0002
     18 C          63.1722   88.0616   12.5700 C.ar    1  UNL1       -0.0027
     19 C          62.0736   88.5306   11.6629 C.ar    1  UNL1       -0.0042
     20 C          61.1566   87.5339   11.0182 C.ar    1  UNL1       -0.0027
     21 C          61.3383   86.0683   11.2805 C.ar    1  UNL1       -0.0002
     22 C          63.1640   79.7367   13.2370 C.3     1  UNL1        0.0737
     23 C          62.9822   81.2023   12.9746 C.ar    1  UNL1        0.1396
     24 N          62.6628   82.1329   14.1068 N.ar    1  UNL1       -0.2291
     25 C          62.4811   83.5986   13.8445 C.ar    1  UNL1        0.1017
     26 C          62.6188   84.1336   12.4499 C.ar    1  UNL1        0.0383
     27 C          62.9382   83.2030   11.3178 C.ar    1  UNL1        0.1017
     28 N          63.1199   81.7374   11.5801 N.ar    1  UNL1       -0.2291
     29 C          66.3123   93.3658   12.7959 C.3     1  UNL1        0.0714
     30 C          66.9186   92.4671   13.8327 C.3     1  UNL1        0.0922
     31 C          66.1670   93.1980   14.9056 C.3     1  UNL1        0.0294
     32 C          67.6701   91.7363   12.7597 C.3     1  UNL1        0.0294
     33 O          67.5249   91.5685   14.8695 O.3     1  UNL1       -0.3866
     34 H          67.1974   91.8204   15.7471 H       1  UNL1        0.2102
@<TRIPOS>BOND
     1    22    23    1
     2    23    24   ar
     3    24    25   ar
     4    25    26   ar
     5    26    16    1
     6    16    17   ar
     7    17    18   ar
     8    18    19   ar
     9    19    14    1
    10    14    15    1
    11    14     1    1
    12     1     2    1
    13     2     3    1
    14     3     4    1
    15     4    29    1
    16    29    30    1
    17    30    31    1
    18    30    32    1
    19    30    33    1
    20     4     8    1
    21     8     9   ar
    22     9    10   ar
    23    10    11   ar
    24    11    12   ar
    25    12    13   ar
    26     4     5    1
    27     5     6    1
    28     6     7    2
    29    19    20   ar
    30    20    21   ar
    31    26    27   ar
    32    27    28   ar
    33    28    23   ar
    34    21    16   ar
    35     6     1   am
    36    13     8   ar
    37    33    34    1
@<TRIPOS>MOLECULE
*****
 34 37 0 0 0
SMALL
GASTEIGER

@<TRIPOS>ATOM
      1 N          63.5065   90.4342   11.8620 N.am    1  UNL1       -0.2438
      2 C          64.2100   90.2111   13.1679 C.3     1  UNL1        0.1009
      3 C          65.3462   91.1042   13.5700 C.3     1  UNL1        0.0662
      4 C          65.7787   92.2204   12.6662 C.3     1  UNL1        0.1600
      5 O          65.0753   92.4436   11.3603 O.3     1  UNL1       -0.4374
      6 C          63.9392   91.5505   10.9582 C.2     1  UNL1        0.4051
      7 O          63.2357   91.7737    9.6524 O.2     1  UNL1       -0.2262
      8 C          66.7495   92.4075   13.7942 C.ar    1  UNL1        0.0138
      9 C          66.2792   92.9685   15.1034 C.ar    1  UNL1       -0.0010
     10 C          67.2499   93.1555   16.2314 C.ar    1  UNL1       -0.0002
     11 C          68.6912   92.7816   16.0503 C.ar    1  UNL1       -0.0000
     12 C          69.1618   92.2206   14.7412 C.ar    1  UNL1       -0.0002
     13 C          68.1909   92.0335   13.6131 C.ar    1  UNL1       -0.0010
     14 C          62.3705   89.5412   11.4599 C.3     1  UNL1        0.1011
     15 C          61.1682   90.1196   10.7744 C.3     1  UNL1        0.0265
     16 C          62.5690   85.1267   12.3102 C.ar    1  UNL1        0.0030
     17 C          61.6756   85.6412   11.2207 C.ar    1  UNL1       -0.0002
     18 C          61.6094   87.1127   10.9372 C.ar    1  UNL1       -0.0027
     19 C          62.4366   88.0697   11.7433 C.ar    1  UNL1       -0.0042
     20 C          63.3300   87.5552   12.8329 C.ar    1  UNL1       -0.0027
     21 C          63.3962   86.0837   13.1163 C.ar    1  UNL1       -0.0002
     22 C          62.8337   79.2407   13.4438 C.3     1  UNL1        0.0737
     23 C          62.7675   80.7122   13.1604 C.ar    1  UNL1        0.1396
     24 N          62.5516   81.6832   14.2830 N.ar    1  UNL1       -0.2291
     25 C          62.4854   83.1547   13.9996 C.ar    1  UNL1        0.1017
     26 C          62.6351   83.6552   12.5936 C.ar    1  UNL1        0.0383
     27 C          62.8511   82.6841   11.4709 C.ar    1  UNL1        0.1017
     28 N          62.9173   81.2126   11.7543 N.ar    1  UNL1       -0.2291
     29 C          66.5485   93.4016   12.1542 C.3     1  UNL1        0.0714
     30 C          66.5622   93.7086   10.6859 C.3     1  UNL1        0.0922
     31 C          65.7828   94.9646   10.9412 C.3     1  UNL1        0.0294
     32 C          67.3417   92.4526   10.4306 C.3     1  UNL1        0.0294
     33 O          66.5760   94.0156    9.2177 O.3     1  UNL1       -0.3866
     34 H          66.1038   94.8475    9.0569 H       1  UNL1        0.2102
@<TRIPOS>BOND
     1    22    23    1
     2    23    24   ar
     3    24    25   ar
     4    25    26   ar
     5    26    16    1
     6    16    17   ar
     7    17    18   ar
     8    18    19   ar
     9    19    14    1
    10    14    15    1
    11    14     1    1
    12     1     2    1
    13     2     3    1
    14     3     4    1
    15     4    29    1
    16    29    30    1
    17    30    31    1
    18    30    32    1
    19    30    33    1
    20     4     8    1
    21     8     9   ar
    22     9    10   ar
    23    10    11   ar
    24    11    12   ar
    25    12    13   ar
    26     4     5    1
    27     5     6    1
    28     6     7    2
    29    19    20   ar
    30    20    21   ar
    31    26    27   ar
    32    27    28   ar
    33    28    23   ar
    34    21    16   ar
    35     6     1   am
    36    13     8   ar
    37    33    34    1
@<TRIPOS>MOLECULE
*****
 34 37 0 0 0
SMALL
GASTEIGER

@<TRIPOS>ATOM
      1 N          63.6217   87.9052   13.8046 N.am    1  UNL1       -0.2438
      2 C          64.0503   86.6520   14.5087 C.3     1  UNL1        0.1009
      3 C          63.7340   85.3118   13.9137 C.3     1  UNL1        0.0662
      4 C          62.9891   85.2249   12.6146 C.3     1  UNL1        0.1600
      5 O          62.5605   86.4781   11.9105 O.3     1  UNL1       -0.4374
      6 C          62.8768   87.8182   12.5054 C.2     1  UNL1        0.4051
      7 O          62.4482   89.0714   11.8013 O.2     1  UNL1       -0.2262
      8 C          63.1824   83.7655   12.9023 C.ar    1  UNL1        0.0138
      9 C          64.2529   82.9954   12.1875 C.ar    1  UNL1       -0.0010
     10 C          64.4461   81.5360   12.4752 C.ar    1  UNL1       -0.0002
     11 C          63.5688   80.8466   13.4777 C.ar    1  UNL1       -0.0000
     12 C          62.4983   81.6166   14.1926 C.ar    1  UNL1       -0.0002
     13 C          62.3050   83.0761   13.9049 C.ar    1  UNL1       -0.0010
     14 C          63.9379   89.2453   14.3995 C.3     1  UNL1        0.1011
     15 C          63.6834   89.4983   15.8559 C.3     1  UNL1        0.0265
     16 C          65.6503   92.5070   11.8150 C.ar    1  UNL1        0.0030
     17 C          64.3818   91.8168   11.4094 C.ar    1  UNL1       -0.0002
     18 C          63.8110   90.7296   12.2709 C.ar    1  UNL1       -0.0027
     19 C          64.5087   90.3325   13.5380 C.ar    1  UNL1       -0.0042
     20 C          65.7773   91.0227   13.9436 C.ar    1  UNL1       -0.0027
     21 C          66.3480   92.1099   13.0821 C.ar    1  UNL1       -0.0002
     22 C          67.9335   96.8558    8.3690 C.3     1  UNL1        0.0737
     23 C          67.3627   95.7686    9.2305 C.ar    1  UNL1        0.1396
     24 N          66.5688   96.1199   10.4537 N.ar    1  UNL1       -0.2291
     25 C          65.9980   95.0327   11.3152 C.ar    1  UNL1        0.1017
     26 C          66.2211   93.5942   10.9535 C.ar    1  UNL1        0.0383
     27 C          67.0150   93.2429    9.7303 C.ar    1  UNL1        0.1017
     28 N          67.5858   94.3301    8.8688 N.ar    1  UNL1       -0.2291
     29 C          62.3114   84.6311   11.4155 C.3     1  UNL1        0.0714
     30 C          62.3885   85.3273   10.0890 C.3     1  UNL1        0.0922
     31 C          63.6304   84.5549    9.7558 C.3     1  UNL1        0.0294
     32 C          61.1465   86.0998   10.4223 C.3     1  UNL1        0.0294
     33 O          62.4656   86.0236    8.7626 O.3     1  UNL1       -0.3866
     34 H          63.2393   85.7027    8.2735 H       1  UNL1        0.2102
@<TRIPOS>BOND
     1    22    23    1
     2    23    24   ar
     3    24    25   ar
     4    25    26   ar
     5    26    16    1
     6    16    17   ar
     7    17    18   ar
     8    18    19   ar
     9    19    14    1
    10    14    15    1
    11    14     1    1
    12     1     2    1
    13     2     3    1
    14     3     4    1
    15     4    29    1
    16    29    30    1
    17    30    31    1
    18    30    32    1
    19    30    33    1
    20     4     8    1
    21     8     9   ar
    22     9    10   ar
    23    10    11   ar
    24    11    12   ar
    25    12    13   ar
    26     4     5    1
    27     5     6    1
    28     6     7    2
    29    19    20   ar
    30    20    21   ar
    31    26    27   ar
    32    27    28   ar
    33    28    23   ar
    34    21    16   ar
    35     6     1   am
    36    13     8   ar
    37    33    34    1
@<TRIPOS>MOLECULE
*****
 34 37 0 0 0
SMALL
GASTEIGER

@<TRIPOS>ATOM
      1 N          62.2945   87.7408   12.1560 N.am    1  UNL1       -0.2438
      2 C          61.9478   86.6426   11.1949 C.3     1  UNL1        0.1009
      3 C          62.4819   85.2580   11.4139 C.3     1  UNL1        0.0662
      4 C          63.3626   84.9718   12.5938 C.3     1  UNL1        0.1600
      5 O          63.7093   86.0700   13.5549 O.3     1  UNL1       -0.4374
      6 C          63.1752   87.4545   13.3360 C.2     1  UNL1        0.4051
      7 O          63.5219   88.5527   14.2971 O.2     1  UNL1       -0.2262
      8 C          63.3163   83.6099   11.9669 C.ar    1  UNL1        0.0138
      9 C          64.0405   83.3520   10.6789 C.ar    1  UNL1       -0.0010
     10 C          63.9941   81.9901   10.0520 C.ar    1  UNL1       -0.0002
     11 C          63.2235   80.8860   10.7131 C.ar    1  UNL1       -0.0000
     12 C          62.4992   81.1438   12.0011 C.ar    1  UNL1       -0.0002
     13 C          62.5456   82.5057   12.6281 C.ar    1  UNL1       -0.0010
     14 C          61.7604   89.1253   11.9372 C.3     1  UNL1        0.1011
     15 C          60.2999   89.4054   12.1331 C.3     1  UNL1        0.0265
     16 C          64.5397   92.4384   10.6928 C.ar    1  UNL1        0.0030
     17 C          63.5813   91.8507    9.6998 C.ar    1  UNL1       -0.0002
     18 C          62.6549   90.7464   10.1146 C.ar    1  UNL1       -0.0027
     19 C          62.6868   90.2297   11.5224 C.ar    1  UNL1       -0.0042
     20 C          63.6452   90.8173   12.5154 C.ar    1  UNL1       -0.0027
     21 C          64.5717   91.9217   12.1006 C.ar    1  UNL1       -0.0002
     22 C          68.2455   96.8559    9.0336 C.3     1  UNL1        0.0737
     23 C          67.3191   95.7515    9.4484 C.ar    1  UNL1        0.1396
     24 N          65.8648   96.0389    9.6777 N.ar    1  UNL1       -0.2291
     25 C          64.9384   94.9345   10.0925 C.ar    1  UNL1        0.1017
     26 C          65.4662   93.5428   10.2780 C.ar    1  UNL1        0.0383
     27 C          66.9204   93.2554   10.0487 C.ar    1  UNL1        0.1017
     28 N          67.8468   94.3598    9.6339 N.ar    1  UNL1       -0.2291
     29 C          64.2273   84.2125   13.5561 C.3     1  UNL1        0.0714
     30 C          64.4323   84.7299   14.9491 C.3     1  UNL1        0.0922
     31 C          65.8106   85.1892   14.5756 C.3     1  UNL1        0.0294
     32 C          63.0540   84.2706   15.3225 C.3     1  UNL1        0.0294
     33 O          64.6374   85.2472   16.3421 O.3     1  UNL1       -0.3866
     34 H          65.5219   85.6387   16.4147 H       1  UNL1        0.2102
@<TRIPOS>BOND
     1    22    23    1
     2    23    24   ar
     3    24    25   ar
     4    25    26   ar
     5    26    16    1
     6    16    17   ar
     7    17    18   ar
     8    18    19   ar
     9    19    14    1
    10    14    15    1
    11    14     1    1
    12     1     2    1
    13     2     3    1
    14     3     4    1
    15     4    29    1
    16    29    30    1
    17    30    31    1
    18    30    32    1
    19    30    33    1
    20     4     8    1
    21     8     9   ar
    22     9    10   ar
    23    10    11   ar
    24    11    12   ar
    25    12    13   ar
    26     4     5    1
    27     5     6    1
    28     6     7    2
    29    19    20   ar
    30    20    21   ar
    31    26    27   ar
    32    27    28   ar
    33    28    23   ar
    34    21    16   ar
    35     6     1   am
    36    13     8   ar
    37    33    34    1
@<TRIPOS>MOLECULE
*****
 34 37 0 0 0
SMALL
GASTEIGER

@<TRIPOS>ATOM
      1 N          63.9886   90.8596   12.9481 N.am    1  UNL1       -0.2438
      2 C          64.0445   91.6786   11.6926 C.3     1  UNL1        0.1009
      3 C          65.0630   92.7712   11.5546 C.3     1  UNL1        0.0662
      4 C          66.0255   93.0448   12.6720 C.3     1  UNL1        0.1600
      5 O          65.9697   92.2259   13.9275 O.3     1  UNL1       -0.4374
      6 C          64.9512   91.1333   14.0656 C.2     1  UNL1        0.4051
      7 O          64.8953   90.3144   15.3210 O.2     1  UNL1       -0.2262
      8 C          66.4692   94.0841   11.6857 C.ar    1  UNL1        0.0138
      9 C          67.1336   93.6690   10.4065 C.ar    1  UNL1       -0.0010
     10 C          67.5773   94.7083    9.4201 C.ar    1  UNL1       -0.0002
     11 C          67.3566   96.1628    9.7129 C.ar    1  UNL1       -0.0000
     12 C          66.6922   96.5780   10.9920 C.ar    1  UNL1       -0.0002
     13 C          66.2485   95.5387   11.9784 C.ar    1  UNL1       -0.0010
     14 C          62.9702   89.7671   13.0862 C.3     1  UNL1        0.1011
     15 C          62.2315   89.5895   14.3795 C.3     1  UNL1        0.0265
     16 C          62.1312   87.0221    9.6205 C.ar    1  UNL1        0.0030
     17 C          61.9894   88.5060    9.4533 C.ar    1  UNL1       -0.0002
     18 C          62.2691   89.4210   10.6086 C.ar    1  UNL1       -0.0027
     19 C          62.6905   88.8521   11.9310 C.ar    1  UNL1       -0.0042
     20 C          62.8323   87.3682   12.0981 C.ar    1  UNL1       -0.0027
     21 C          62.5526   86.4532   10.9429 C.ar    1  UNL1       -0.0002
     22 C          61.0124   83.3622    4.9995 C.3     1  UNL1        0.0737
     23 C          61.2921   84.2772    6.1548 C.ar    1  UNL1        0.1396
     24 N          60.1790   85.0759    6.7654 N.ar    1  UNL1       -0.2291
     25 C          60.4587   85.9909    7.9207 C.ar    1  UNL1        0.1017
     26 C          61.8515   86.1071    8.4652 C.ar    1  UNL1        0.0383
     27 C          62.9646   85.3084    7.8546 C.ar    1  UNL1        0.1017
     28 N          62.6849   84.3934    6.6993 N.ar    1  UNL1       -0.2291
     29 C          67.1422   93.6794   13.4469 C.3     1  UNL1        0.0714
     30 C          67.9936   92.8437   14.3562 C.3     1  UNL1        0.0922
     31 C          68.3613   91.9609   13.2005 C.3     1  UNL1        0.0294
     32 C          67.6259   93.7264   15.5118 C.3     1  UNL1        0.0294
     33 O          68.8450   92.0079   15.2654 O.3     1  UNL1       -0.3866
     34 H          69.2527   91.2896   14.7569 H       1  UNL1        0.2102
@<TRIPOS>BOND
     1    22    23    1
     2    23    24   ar
     3    24    25   ar
     4    25    26   ar
     5    26    16    1
     6    16    17   ar
     7    17    18   ar
     8    18    19   ar
     9    19    14    1
    10    14    15    1
    11    14     1    1
    12     1     2    1
    13     2     3    1
    14     3     4    1
    15     4    29    1
    16    29    30    1
    17    30    31    1
    18    30    32    1
    19    30    33    1
    20     4     8    1
    21     8     9   ar
    22     9    10   ar
    23    10    11   ar
    24    11    12   ar
    25    12    13   ar
    26     4     5    1
    27     5     6    1
    28     6     7    2
    29    19    20   ar
    30    20    21   ar
    31    26    27   ar
    32    27    28   ar
    33    28    23   ar
    34    21    16   ar
    35     6     1   am
    36    13     8   ar
    37    33    34    1
@<TRIPOS>MOLECULE
*****
 34 37 0 0 0
SMALL
GASTEIGER

@<TRIPOS>ATOM
      1 N          62.2248   88.2357   11.3202 N.am    1  UNL1       -0.2438
      2 C          62.5676   87.0595   12.1857 C.3     1  UNL1        0.1009
      3 C          62.7280   85.6994   11.5737 C.3     1  UNL1        0.0662
      4 C          62.5456   85.5156   10.0962 C.3     1  UNL1        0.1600
      5 O          62.2027   86.6918    9.2307 O.3     1  UNL1       -0.4374
      6 C          62.0423   88.0518    9.8427 C.2     1  UNL1        0.4051
      7 O          61.6995   89.2280    8.9772 O.2     1  UNL1       -0.2262
      8 C          62.8634   84.1055   10.4969 C.ar    1  UNL1        0.0138
      9 C          63.8736   83.3145    9.7199 C.ar    1  UNL1       -0.0010
     10 C          64.1914   81.9044   10.1206 C.ar    1  UNL1       -0.0002
     11 C          63.4989   81.2853   11.2984 C.ar    1  UNL1       -0.0000
     12 C          62.4887   82.0761   12.0755 C.ar    1  UNL1       -0.0002
     13 C          62.1709   83.4863   11.6748 C.ar    1  UNL1       -0.0010
     14 C          62.0644   89.5958   11.9322 C.3     1  UNL1        0.1011
     15 C          60.7278   90.2760   11.9082 C.3     1  UNL1        0.0265
     16 C          65.5931   91.6350   13.8400 C.ar    1  UNL1        0.0030
     17 C          65.1467   92.0380   12.4659 C.ar    1  UNL1       -0.0002
     18 C          63.9704   91.3583   11.8299 C.ar    1  UNL1       -0.0027
     19 C          63.2406   90.2755   12.5681 C.ar    1  UNL1       -0.0042
     20 C          63.6870   89.8725   13.9422 C.ar    1  UNL1       -0.0027
     21 C          64.8633   90.5522   14.5782 C.ar    1  UNL1       -0.0002
     22 C          70.2980   94.3540   16.3838 C.3     1  UNL1        0.0737
     23 C          69.1218   93.6743   15.7479 C.ar    1  UNL1        0.1396
     24 N          69.3128   92.8428   14.5141 N.ar    1  UNL1       -0.2291
     25 C          68.1366   92.1631   13.8782 C.ar    1  UNL1        0.1017
     26 C          66.7693   92.3148   14.4760 C.ar    1  UNL1        0.0383
     27 C          66.5782   93.1462   15.7097 C.ar    1  UNL1        0.1017
     28 N          67.7544   93.8259   16.3457 N.ar    1  UNL1       -0.2291
     29 C          62.4735   84.8420    8.7579 C.3     1  UNL1        0.0714
     30 C          61.4352   85.2640    7.7609 C.3     1  UNL1        0.0922
     31 C          60.5442   85.7156    8.8799 C.3     1  UNL1        0.0294
     32 C          62.3263   84.8124    6.6419 C.3     1  UNL1        0.0294
     33 O          60.3970   85.6859    6.7638 O.3     1  UNL1       -0.3866
     34 H          59.6299   86.0522    7.2311 H       1  UNL1        0.2102
@<TRIPOS>BOND
     1    22    23    1
     2    23    24   ar
     3    24    25   ar
     4    25    26   ar
     5    26    16    1
     6    16    17   ar
     7    17    18   ar
     8    18    19   ar
     9    19    14    1
    10    14    15    1
    11    14     1    1
    12     1     2    1
    13     2     3    1
    14     3     4    1
    15     4    29    1
    16    29    30    1
    17    30    31    1
    18    30    32    1
    19    30    33    1
    20     4     8    1
    21     8     9   ar
    22     9    10   ar
    23    10    11   ar
    24    11    12   ar
    25    12    13   ar
    26     4     5    1
    27     5     6    1
    28     6     7    2
    29    19    20   ar
    30    20    21   ar
    31    26    27   ar
    32    27    28   ar
    33    28    23   ar
    34    21    16   ar
    35     6     1   am
    36    13     8   ar
    37    33    34    1
