@<TRIPOS>MOLECULE
*****
 36 40 0 0 0
SMALL
GASTEIGER

@<TRIPOS>ATOM
      1 O          62.2216   88.4378   12.3092 O.3     1  UNL1       -0.4511
      2 C          63.1390   89.6163   12.1700 C.ar    1  UNL1        0.1748
      3 C          64.1203   89.9356   13.2587 C.ar    1  UNL1        0.0708
      4 C          65.0377   91.1141   13.1195 C.ar    1  UNL1        0.1621
      5 F          66.0190   91.4334   14.2081 F       1  UNL1       -0.2026
      6 C          64.9739   91.9734   11.8916 C.ar    1  UNL1        0.1549
      7 C          63.9926   91.6541   10.8029 C.ar    1  UNL1        0.0553
      8 C          63.0752   90.4755   10.9422 C.ar    1  UNL1        0.1759
      9 F          62.0939   90.1563    9.8535 F       1  UNL1       -0.2009
     10 S          65.8913   93.1519   11.7523 S.O2    1  UNL1        0.0773
     11 O          65.4396   93.6615   13.0889 O.2     1  UNL1       -0.1498
     12 O          66.3431   92.6423   10.4158 O.2     1  UNL1       -0.1498
     13 N          66.8088   94.3304   11.6131 N.pl3   1  UNL1       -0.1925
     14 H          67.4850   94.5123   12.3052 H       1  UNL1        0.1758
     15 C          66.6960   95.2318   10.4194 C.ar    1  UNL1        0.1977
     16 N          67.7130   95.3793    9.3267 N.ar    1  UNL1       -0.1997
     17 C          67.1919   96.3825    8.3408 C.ar    1  UNL1        0.2082
     18 N          65.8529   96.8551    8.8242 N.ar    1  UNL1       -0.1840
     19 S          65.5464   96.1439   10.1089 S.2     1  UNL1        0.0508
     20 C          63.0796   85.9939   12.1056 C.ar    1  UNL1        0.0527
     21 C          63.3100   84.7626   11.2806 C.ar    1  UNL1        0.0159
     22 C          62.9128   84.7436    9.8343 C.ar    1  UNL1        0.0579
     23 CL         63.1433   83.5122    9.0093 Cl      1  UNL1       -0.0822
     24 C          62.2852   85.9561    9.2130 C.ar    1  UNL1        0.0145
     25 C          62.0548   87.1874   10.0379 C.ar    1  UNL1        0.0384
     26 C          62.4520   87.2064   11.4842 C.ar    1  UNL1        0.1468
     27 N          63.4990   84.8313   14.4758 N.ar    1  UNL1       -0.2499
     28 N          63.9574   85.3049   15.8232 N.ar    1  UNL1       -0.1677
     29 C          64.2185   86.7793   15.7321 C.ar    1  UNL1        0.1217
     30 C          63.9215   87.2168   14.3285 C.ar    1  UNL1        0.0413
     31 C          63.4768   86.0129   13.5520 C.ar    1  UNL1        0.0824
     32 C          62.2320   80.0242   13.2455 C.3     1  UNL1        0.0897
     33 N          62.6031   81.4322   13.6058 N.3     1  UNL1       -0.2681
     34 C          63.8429   82.2671   13.4816 C.3     1  UNL1        0.0982
     35 C          63.1279   83.4234   14.1154 C.3     1  UNL1        0.1369
     36 C          61.8880   82.5883   14.2396 C.3     1  UNL1        0.0982
@<TRIPOS>BOND
     1    32    33    1
     2    33    34    1
     3    34    35    1
     4    35    27    1
     5    27    28   ar
     6    28    29   ar
     7    29    30   ar
     8    30    31   ar
     9    31    20    1
    10    20    21   ar
    11    21    22   ar
    12    22    23    1
    13    22    24   ar
    14    24    25   ar
    15    25    26   ar
    16    26     1    1
    17     1     2    1
    18     2     3   ar
    19     3     4   ar
    20     4     5    1
    21     4     6   ar
    22     6    10    1
    23    10    11    2
    24    10    12    2
    25    10    13    1
    26    13    15    1
    27    15    16   ar
    28    16    17   ar
    29    17    18   ar
    30    18    19   ar
    31     6     7   ar
    32     7     8   ar
    33     8     9    1
    34    35    36    1
    35    36    33    1
    36    31    27   ar
    37    26    20   ar
    38     8     2   ar
    39    19    15   ar
    40    13    14    1
@<TRIPOS>MOLECULE
*****
 36 40 0 0 0
SMALL
GASTEIGER

@<TRIPOS>ATOM
      1 O          62.6716   88.3810   12.7890 O.3     1  UNL1       -0.4511
      2 C          63.5120   89.6132   12.6301 C.ar    1  UNL1        0.1748
      3 C          63.3644   90.4692   11.4072 C.ar    1  UNL1        0.0708
      4 C          64.2049   91.7014   11.2483 C.ar    1  UNL1        0.1621
      5 F          64.0573   92.5574   10.0254 F       1  UNL1       -0.2026
      6 C          65.1930   92.0776   12.3124 C.ar    1  UNL1        0.1549
      7 C          65.3406   91.2216   13.5352 C.ar    1  UNL1        0.0553
      8 C          64.5001   89.9894   13.6941 C.ar    1  UNL1        0.1759
      9 F          64.6477   89.1334   14.9171 F       1  UNL1       -0.2009
     10 S          66.0335   93.3098   12.1535 S.O2    1  UNL1        0.0773
     11 O          66.4883   92.8262   10.8084 O.2     1  UNL1       -0.1498
     12 O          65.5787   93.7935   13.4986 O.2     1  UNL1       -0.1498
     13 N          66.8740   94.5420   11.9946 N.pl3   1  UNL1       -0.1925
     14 H          67.4464   94.8464   12.7355 H       1  UNL1        0.1758
     15 C          66.8423   95.3106   10.7068 C.ar    1  UNL1        0.1977
     16 N          67.8189   95.1770    9.5761 N.ar    1  UNL1       -0.1997
     17 C          67.4088   96.1314    8.4940 C.ar    1  UNL1        0.2082
     18 N          66.1786   96.8549    8.9560 N.ar    1  UNL1       -0.1840
     19 S          65.8285   96.3475   10.3235 S.2     1  UNL1        0.0508
     20 C          62.8193   86.0360   11.6803 C.ar    1  UNL1        0.0527
     21 C          62.5758   85.1374   10.5042 C.ar    1  UNL1        0.0159
     22 C          61.9410   85.6854    9.2606 C.ar    1  UNL1        0.0579
     23 CL         61.6975   84.7868    8.0844 Cl      1  UNL1       -0.0822
     24 C          61.5497   87.1319    9.1931 C.ar    1  UNL1        0.0145
     25 C          61.7932   88.0304   10.3692 C.ar    1  UNL1        0.0384
     26 C          62.4280   87.4824   11.6128 C.ar    1  UNL1        0.1468
     27 N          63.7806   84.0476   13.1863 N.ar    1  UNL1       -0.2499
     28 N          64.4022   83.9536   14.5481 N.ar    1  UNL1       -0.1677
     29 C          64.4600   85.3360   15.1276 C.ar    1  UNL1        0.1217
     30 C          63.8741   86.2843   14.1239 C.ar    1  UNL1        0.0413
     31 C          63.4542   85.4880   12.9241 C.ar    1  UNL1        0.0824
     32 C          62.9231   80.1372    9.9924 C.3     1  UNL1        0.0897
     33 N          63.1743   81.2825   10.9278 N.3     1  UNL1       -0.2681
     34 C          62.4816   81.8348   12.1382 C.3     1  UNL1        0.0982
     35 C          63.5294   82.9023   12.2508 C.3     1  UNL1        0.1369
     36 C          64.2221   82.3499   11.0403 C.3     1  UNL1        0.0982
@<TRIPOS>BOND
     1    32    33    1
     2    33    34    1
     3    34    35    1
     4    35    27    1
     5    27    28   ar
     6    28    29   ar
     7    29    30   ar
     8    30    31   ar
     9    31    20    1
    10    20    21   ar
    11    21    22   ar
    12    22    23    1
    13    22    24   ar
    14    24    25   ar
    15    25    26   ar
    16    26     1    1
    17     1     2    1
    18     2     3   ar
    19     3     4   ar
    20     4     5    1
    21     4     6   ar
    22     6    10    1
    23    10    11    2
    24    10    12    2
    25    10    13    1
    26    13    15    1
    27    15    16   ar
    28    16    17   ar
    29    17    18   ar
    30    18    19   ar
    31     6     7   ar
    32     7     8   ar
    33     8     9    1
    34    35    36    1
    35    36    33    1
    36    31    27   ar
    37    26    20   ar
    38     8     2   ar
    39    19    15   ar
    40    13    14    1
@<TRIPOS>MOLECULE
*****
 36 40 0 0 0
SMALL
GASTEIGER

@<TRIPOS>ATOM
      1 O          63.2322   90.3743   14.7721 O.3     1  UNL1       -0.4511
      2 C          63.4089   88.8876   14.8639 C.ar    1  UNL1        0.1748
      3 C          63.5366   88.0689   13.6135 C.ar    1  UNL1        0.0708
      4 C          63.7133   86.5821   13.7053 C.ar    1  UNL1        0.1621
      5 F          63.8410   85.7634   12.4550 F       1  UNL1       -0.2026
      6 C          63.7622   85.9142   15.0476 C.ar    1  UNL1        0.1549
      7 C          63.6345   86.7329   16.2979 C.ar    1  UNL1        0.0553
      8 C          63.4579   88.2196   16.2060 C.ar    1  UNL1        0.1759
      9 F          63.3302   89.0384   17.4564 F       1  UNL1       -0.2009
     10 S          63.9389   84.4274   15.1394 S.O2    1  UNL1        0.0773
     11 O          65.3660   84.5699   14.6998 O.2     1  UNL1       -0.1498
     12 O          62.5119   84.2850   15.5790 O.2     1  UNL1       -0.1498
     13 N          64.1156   82.9407   15.2312 N.pl3   1  UNL1       -0.1925
     14 H          64.6046   82.5491   15.9907 H       1  UNL1        0.1758
     15 C          63.5472   82.0507   14.1659 C.ar    1  UNL1        0.1977
     16 N          62.7871   80.7777   14.3935 N.ar    1  UNL1       -0.1997
     17 C          62.4093   80.2176   13.0543 C.ar    1  UNL1        0.2082
     18 N          62.9359   81.1445   11.9989 N.ar    1  UNL1       -0.1840
     19 S          63.6392   82.2773   12.6860 S.2     1  UNL1        0.0508
     20 C          64.9340   91.8327   13.4579 C.ar    1  UNL1        0.0527
     21 C          66.1351   92.7311   13.4420 C.ar    1  UNL1        0.0159
     22 C          66.8354   93.0696   14.7245 C.ar    1  UNL1        0.0579
     23 CL         68.0366   93.9680   14.7086 Cl      1  UNL1       -0.0822
     24 C          66.3347   92.5097   16.0229 C.ar    1  UNL1        0.0145
     25 C          65.1337   91.6113   16.0388 C.ar    1  UNL1        0.0384
     26 C          64.4333   91.2728   14.7563 C.ar    1  UNL1        0.1468
     27 N          64.4472   92.1645   10.8505 N.ar    1  UNL1       -0.2499
     28 N          63.5423   91.5105    9.8488 N.ar    1  UNL1       -0.1677
     29 C          62.7694   90.4360   10.5546 C.ar    1  UNL1        0.1217
     30 C          63.1966   90.4259   11.9924 C.ar    1  UNL1        0.0413
     31 C          64.2336   91.4941   12.1753 C.ar    1  UNL1        0.0824
     32 C          67.6960   96.0106    9.9121 C.3     1  UNL1        0.0897
     33 N          66.7445   94.8841   10.1869 N.3     1  UNL1       -0.2681
     34 C          65.3574   94.7804   10.7484 C.3     1  UNL1        0.0982
     35 C          65.3987   93.2910   10.5757 C.3     1  UNL1        0.1369
     36 C          66.7859   93.3947   10.0141 C.3     1  UNL1        0.0982
@<TRIPOS>BOND
     1    32    33    1
     2    33    34    1
     3    34    35    1
     4    35    27    1
     5    27    28   ar
     6    28    29   ar
     7    29    30   ar
     8    30    31   ar
     9    31    20    1
    10    20    21   ar
    11    21    22   ar
    12    22    23    1
    13    22    24   ar
    14    24    25   ar
    15    25    26   ar
    16    26     1    1
    17     1     2    1
    18     2     3   ar
    19     3     4   ar
    20     4     5    1
    21     4     6   ar
    22     6    10    1
    23    10    11    2
    24    10    12    2
    25    10    13    1
    26    13    15    1
    27    15    16   ar
    28    16    17   ar
    29    17    18   ar
    30    18    19   ar
    31     6     7   ar
    32     7     8   ar
    33     8     9    1
    34    35    36    1
    35    36    33    1
    36    31    27   ar
    37    26    20   ar
    38     8     2   ar
    39    19    15   ar
    40    13    14    1
@<TRIPOS>MOLECULE
*****
 36 40 0 0 0
SMALL
GASTEIGER

@<TRIPOS>ATOM
      1 O          61.6862   87.7592   11.8303 O.3     1  UNL1       -0.4511
      2 C          62.6107   88.9022   12.1279 C.ar    1  UNL1        0.1748
      3 C          63.5420   88.8276   13.3015 C.ar    1  UNL1        0.0708
      4 C          64.4665   89.9707   13.5992 C.ar    1  UNL1        0.1621
      5 F          65.3977   89.8961   14.7727 F       1  UNL1       -0.2026
      6 C          64.4598   91.1884   12.7232 C.ar    1  UNL1        0.1549
      7 C          63.5286   91.2630   11.5497 C.ar    1  UNL1        0.0553
      8 C          62.6041   90.1199   11.2520 C.ar    1  UNL1        0.1759
      9 F          61.6728   90.1945   10.0784 F       1  UNL1       -0.2009
     10 S          65.3843   92.3315   13.0209 S.O2    1  UNL1        0.0773
     11 O          65.8050   92.3661   11.5815 O.2     1  UNL1       -0.1498
     12 O          64.9637   92.2969   14.4603 O.2     1  UNL1       -0.1498
     13 N          66.3089   93.4746   13.3186 N.pl3   1  UNL1       -0.1925
     14 H          66.1947   94.3342   12.8525 H       1  UNL1        0.1758
     15 C          67.4073   93.3079   14.3264 C.ar    1  UNL1        0.1977
     16 N          67.7312   94.2562   15.4425 N.ar    1  UNL1       -0.1997
     17 C          68.8988   93.6981   16.2010 C.ar    1  UNL1        0.2082
     18 N          69.2965   92.4047   15.5536 N.ar    1  UNL1       -0.1840
     19 S          68.3747   92.1636   14.3950 S.2     1  UNL1        0.0508
     20 C          62.6954   85.6210   10.7533 C.ar    1  UNL1        0.0527
     21 C          62.9303   84.7610    9.5471 C.ar    1  UNL1        0.0159
     22 C          62.3909   85.1791    8.2114 C.ar    1  UNL1        0.0579
     23 CL         62.6258   84.3190    7.0050 Cl      1  UNL1       -0.0822
     24 C          61.6166   86.4572    8.0819 C.ar    1  UNL1        0.0145
     25 C          61.3817   87.3173    9.2882 C.ar    1  UNL1        0.0384
     26 C          61.9211   86.8991   10.6239 C.ar    1  UNL1        0.1468
     27 N          63.5247   83.7962   12.5219 N.ar    1  UNL1       -0.2499
     28 N          64.0481   83.8419   13.9268 N.ar    1  UNL1       -0.1677
     29 C          64.0817   85.2769   14.3624 C.ar    1  UNL1        0.1217
     30 C          63.5791   86.1180   13.2267 C.ar    1  UNL1        0.0413
     31 C          63.2348   85.2029   12.0891 C.ar    1  UNL1        0.0824
     32 C          62.8466   79.5778    9.6981 C.3     1  UNL1        0.0897
     33 N          63.0452   80.8134   10.5251 N.3     1  UNL1       -0.2681
     34 C          62.4380   81.3552   11.7851 C.3     1  UNL1        0.0982
     35 C          63.3261   82.5606   11.6948 C.3     1  UNL1        0.1369
     36 C          63.9333   82.0188   10.4347 C.3     1  UNL1        0.0982
@<TRIPOS>BOND
     1    32    33    1
     2    33    34    1
     3    34    35    1
     4    35    27    1
     5    27    28   ar
     6    28    29   ar
     7    29    30   ar
     8    30    31   ar
     9    31    20    1
    10    20    21   ar
    11    21    22   ar
    12    22    23    1
    13    22    24   ar
    14    24    25   ar
    15    25    26   ar
    16    26     1    1
    17     1     2    1
    18     2     3   ar
    19     3     4   ar
    20     4     5    1
    21     4     6   ar
    22     6    10    1
    23    10    11    2
    24    10    12    2
    25    10    13    1
    26    13    15    1
    27    15    16   ar
    28    16    17   ar
    29    17    18   ar
    30    18    19   ar
    31     6     7   ar
    32     7     8   ar
    33     8     9    1
    34    35    36    1
    35    36    33    1
    36    31    27   ar
    37    26    20   ar
    38     8     2   ar
    39    19    15   ar
    40    13    14    1
@<TRIPOS>MOLECULE
*****
 36 40 0 0 0
SMALL
GASTEIGER

@<TRIPOS>ATOM
      1 O          64.1753   89.2785   14.8037 O.3     1  UNL1       -0.4511
      2 C          63.9349   87.8020   14.9140 C.ar    1  UNL1        0.1748
      3 C          64.1398   86.9175   13.7200 C.ar    1  UNL1        0.0708
      4 C          63.8994   85.4410   13.8303 C.ar    1  UNL1        0.1621
      5 F          64.1043   84.5565   12.6363 F       1  UNL1       -0.2026
      6 C          63.4541   84.8490   15.1347 C.ar    1  UNL1        0.1549
      7 C          63.2492   85.7336   16.3286 C.ar    1  UNL1        0.0553
      8 C          63.4896   87.2100   16.2183 C.ar    1  UNL1        0.1759
      9 F          63.2846   88.0946   17.4124 F       1  UNL1       -0.2009
     10 S          63.2137   83.3725   15.2450 S.O2    1  UNL1        0.0773
     11 O          64.6892   83.1429   15.3866 O.2     1  UNL1       -0.1498
     12 O          61.7382   83.6022   15.1034 O.2     1  UNL1       -0.1498
     13 N          62.9733   81.8960   15.3553 N.pl3   1  UNL1       -0.1925
     14 H          62.9065   81.4731   16.2418 H       1  UNL1        0.1758
     15 C          62.8347   81.0640   14.1149 C.ar    1  UNL1        0.1977
     16 N          62.4528   79.6143   14.0638 N.ar    1  UNL1       -0.1997
     17 C          62.4358   79.1898   12.6252 C.ar    1  UNL1        0.2082
     18 N          62.8072   80.3773   11.7872 N.ar    1  UNL1       -0.1840
     19 S          63.0538   81.5355   12.7079 S.2     1  UNL1        0.0508
     20 C          64.6485   91.2494   13.1784 C.ar    1  UNL1        0.0527
     21 C          64.3818   91.9580   11.8835 C.ar    1  UNL1        0.0159
     22 C          63.3753   91.4043   10.9190 C.ar    1  UNL1        0.0579
     23 CL         63.1086   92.1129    9.6240 Cl      1  UNL1       -0.0822
     24 C          62.6355   90.1420   11.2494 C.ar    1  UNL1        0.0145
     25 C          62.9021   89.4334   12.5442 C.ar    1  UNL1        0.0384
     26 C          63.9086   89.9871   13.5087 C.ar    1  UNL1        0.1468
     27 N          67.0276   92.2994   13.7969 N.ar    1  UNL1       -0.2499
     28 N          67.6866   92.7608   15.0629 N.ar    1  UNL1       -0.1677
     29 C          66.7212   92.5497   16.1914 C.ar    1  UNL1        0.1217
     30 C          65.4657   91.9579   15.6228 C.ar    1  UNL1        0.0413
     31 C          65.6550   91.8032   14.1429 C.ar    1  UNL1        0.0824
     32 C          69.1002   92.4006    9.1148 C.3     1  UNL1        0.0897
     33 N          68.4931   92.3709   10.4861 N.3     1  UNL1       -0.2681
     34 C          68.7796   91.6275   11.7570 C.3     1  UNL1        0.0982
     35 C          67.6347   92.3290   12.4255 C.3     1  UNL1        0.1369
     36 C          67.3482   93.0724   11.1546 C.3     1  UNL1        0.0982
@<TRIPOS>BOND
     1    32    33    1
     2    33    34    1
     3    34    35    1
     4    35    27    1
     5    27    28   ar
     6    28    29   ar
     7    29    30   ar
     8    30    31   ar
     9    31    20    1
    10    20    21   ar
    11    21    22   ar
    12    22    23    1
    13    22    24   ar
    14    24    25   ar
    15    25    26   ar
    16    26     1    1
    17     1     2    1
    18     2     3   ar
    19     3     4   ar
    20     4     5    1
    21     4     6   ar
    22     6    10    1
    23    10    11    2
    24    10    12    2
    25    10    13    1
    26    13    15    1
    27    15    16   ar
    28    16    17   ar
    29    17    18   ar
    30    18    19   ar
    31     6     7   ar
    32     7     8   ar
    33     8     9    1
    34    35    36    1
    35    36    33    1
    36    31    27   ar
    37    26    20   ar
    38     8     2   ar
    39    19    15   ar
    40    13    14    1
@<TRIPOS>MOLECULE
*****
 36 40 0 0 0
SMALL
GASTEIGER

@<TRIPOS>ATOM
      1 O          62.6710   88.7640   13.4202 O.3     1  UNL1       -0.4511
      2 C          63.5742   89.8667   12.9530 C.ar    1  UNL1        0.1748
      3 C          63.2957   90.5649   11.6548 C.ar    1  UNL1        0.0708
      4 C          64.1988   91.6676   11.1876 C.ar    1  UNL1        0.1621
      5 F          63.9205   92.3658    9.8895 F       1  UNL1       -0.2026
      6 C          65.3804   92.0722   12.0185 C.ar    1  UNL1        0.1549
      7 C          65.6588   91.3741   13.3166 C.ar    1  UNL1        0.0553
      8 C          64.7556   90.2713   13.7838 C.ar    1  UNL1        0.1759
      9 F          65.0341   89.5732   15.0820 F       1  UNL1       -0.2009
     10 S          66.2835   93.1750   11.5512 S.O2    1  UNL1        0.0773
     11 O          66.9543   92.2244   10.6044 O.2     1  UNL1       -0.1498
     12 O          65.6127   94.1255   12.4981 O.2     1  UNL1       -0.1498
     13 N          67.1866   94.2777   11.0840 N.pl3   1  UNL1       -0.1925
     14 H          68.0623   94.4120   11.5133 H       1  UNL1        0.1758
     15 C          66.7555   95.1758    9.9625 C.ar    1  UNL1        0.1977
     16 N          65.6299   96.1662   10.0091 N.ar    1  UNL1       -0.1997
     17 C          65.5529   96.8437    8.6731 C.ar    1  UNL1        0.2082
     18 N          66.6310   96.2719    7.8007 N.ar    1  UNL1       -0.1840
     19 S          67.3742   95.2412    8.5977 S.2     1  UNL1        0.0508
     20 C          62.0503   86.9568   11.6598 C.ar    1  UNL1        0.0527
     21 C          62.2112   85.5712   11.1083 C.ar    1  UNL1        0.0159
     22 C          63.1537   84.6072   11.7656 C.ar    1  UNL1        0.0579
     23 CL         63.3146   83.2215   11.2141 Cl      1  UNL1       -0.0822
     24 C          63.9353   85.0286   12.9745 C.ar    1  UNL1        0.0145
     25 C          63.7745   86.4142   13.5261 C.ar    1  UNL1        0.0384
     26 C          62.8320   87.3783   12.8687 C.ar    1  UNL1        0.1468
     27 N          60.6226   87.8518    9.5848 N.ar    1  UNL1       -0.2499
     28 N          59.6999   89.0116    9.3535 N.ar    1  UNL1       -0.1677
     29 C          59.6149   89.7977   10.6283 C.ar    1  UNL1        0.1217
     30 C          60.4850   89.1236   11.6473 C.ar    1  UNL1        0.0413
     31 C          61.1078   87.9210   11.0024 C.ar    1  UNL1        0.0824
     32 C          61.8930   84.2824    6.1390 C.3     1  UNL1        0.0897
     33 N          61.5209   85.3279    7.1482 N.3     1  UNL1       -0.2681
     34 C          62.2686   86.1212    8.1785 C.3     1  UNL1        0.0982
     35 C          60.9947   86.8064    8.5755 C.3     1  UNL1        0.1369
     36 C          60.2470   86.0130    7.5452 C.3     1  UNL1        0.0982
@<TRIPOS>BOND
     1    32    33    1
     2    33    34    1
     3    34    35    1
     4    35    27    1
     5    27    28   ar
     6    28    29   ar
     7    29    30   ar
     8    30    31   ar
     9    31    20    1
    10    20    21   ar
    11    21    22   ar
    12    22    23    1
    13    22    24   ar
    14    24    25   ar
    15    25    26   ar
    16    26     1    1
    17     1     2    1
    18     2     3   ar
    19     3     4   ar
    20     4     5    1
    21     4     6   ar
    22     6    10    1
    23    10    11    2
    24    10    12    2
    25    10    13    1
    26    13    15    1
    27    15    16   ar
    28    16    17   ar
    29    17    18   ar
    30    18    19   ar
    31     6     7   ar
    32     7     8   ar
    33     8     9    1
    34    35    36    1
    35    36    33    1
    36    31    27   ar
    37    26    20   ar
    38     8     2   ar
    39    19    15   ar
    40    13    14    1
@<TRIPOS>MOLECULE
*****
 36 40 0 0 0
SMALL
GASTEIGER

@<TRIPOS>ATOM
      1 O          61.4873   92.6242   -0.9601 O.3     1  UNL1       -0.4511
      2 C          60.0481   93.0167   -1.1169 C.ar    1  UNL1        0.1748
      3 C          59.4452   93.1255   -2.4861 C.ar    1  UNL1        0.0708
      4 C          58.0060   93.5180   -2.6429 C.ar    1  UNL1        0.1621
      5 F          57.4032   93.6269   -4.0120 F       1  UNL1       -0.2026
      6 C          57.1696   93.8017   -1.4304 C.ar    1  UNL1        0.1549
      7 C          57.7725   93.6929   -0.0612 C.ar    1  UNL1        0.0553
      8 C          59.2117   93.3004    0.0955 C.ar    1  UNL1        0.1759
      9 F          59.8146   93.1915    1.4648 F       1  UNL1       -0.2009
     10 S          55.7304   94.1942   -1.5871 S.O2    1  UNL1        0.0773
     11 O          55.3705   92.7644   -1.8628 O.2     1  UNL1       -0.1498
     12 O          56.0903   95.6241   -1.3114 O.2     1  UNL1       -0.1498
     13 N          54.2912   94.5867   -1.7439 N.pl3   1  UNL1       -0.1925
     14 H          53.6311   94.3189   -1.0643 H       1  UNL1        0.1758
     15 C          53.8577   95.3873   -2.9361 C.ar    1  UNL1        0.1977
     16 N          54.6380   95.5744   -4.2035 N.ar    1  UNL1       -0.1997
     17 C          53.8304   96.4440   -5.1209 C.ar    1  UNL1        0.2082
     18 N          52.5510   96.7943   -4.4204 N.ar    1  UNL1       -0.1840
     19 S          52.5679   96.1412   -3.0702 S.2     1  UNL1        0.0508
     20 C          62.5482   94.9414   -0.4551 C.ar    1  UNL1        0.0527
     21 C          63.4746   95.7967    0.3574 C.ar    1  UNL1        0.0159
     22 C          64.2665   95.1901    1.4776 C.ar    1  UNL1        0.0579
     23 CL         65.1929   96.0454    2.2902 Cl      1  UNL1       -0.0822
     24 C          64.1320   93.7281    1.7852 C.ar    1  UNL1        0.0145
     25 C          63.2056   92.8729    0.9727 C.ar    1  UNL1        0.0384
     26 C          62.4137   93.4795   -0.1475 C.ar    1  UNL1        0.1468
     27 N          61.9766   95.3110   -3.0401 N.ar    1  UNL1       -0.2499
     28 N          60.9615   96.1147   -3.7975 N.ar    1  UNL1       -0.1677
     29 C          60.1138   96.8484   -2.8009 C.ar    1  UNL1        0.1217
     30 C          60.6050   96.4982   -1.4276 C.ar    1  UNL1        0.0413
     31 C          61.7563   95.5481   -1.5754 C.ar    1  UNL1        0.0824
     32 C          65.5645   92.2885   -5.0941 C.3     1  UNL1        0.0897
     33 N          64.5136   93.1738   -4.4925 N.3     1  UNL1       -0.2681
     34 C          64.4426   94.6196   -4.0995 C.3     1  UNL1        0.0982
     35 C          63.0275   94.4258   -3.6417 C.3     1  UNL1        0.1369
     36 C          63.0984   92.9799   -4.0347 C.3     1  UNL1        0.0982
@<TRIPOS>BOND
     1    32    33    1
     2    33    34    1
     3    34    35    1
     4    35    27    1
     5    27    28   ar
     6    28    29   ar
     7    29    30   ar
     8    30    31   ar
     9    31    20    1
    10    20    21   ar
    11    21    22   ar
    12    22    23    1
    13    22    24   ar
    14    24    25   ar
    15    25    26   ar
    16    26     1    1
    17     1     2    1
    18     2     3   ar
    19     3     4   ar
    20     4     5    1
    21     4     6   ar
    22     6    10    1
    23    10    11    2
    24    10    12    2
    25    10    13    1
    26    13    15    1
    27    15    16   ar
    28    16    17   ar
    29    17    18   ar
    30    18    19   ar
    31     6     7   ar
    32     7     8   ar
    33     8     9    1
    34    35    36    1
    35    36    33    1
    36    31    27   ar
    37    26    20   ar
    38     8     2   ar
    39    19    15   ar
    40    13    14    1
@<TRIPOS>MOLECULE
*****
 36 40 0 0 0
SMALL
GASTEIGER

@<TRIPOS>ATOM
      1 O          63.1110   86.8636   12.5313 O.3     1  UNL1       -0.4511
      2 C          63.6892   88.1548   13.0300 C.ar    1  UNL1        0.1748
      3 C          63.5196   89.4115   12.2287 C.ar    1  UNL1        0.0708
      4 C          64.0978   90.7027   12.7274 C.ar    1  UNL1        0.1621
      5 F          63.9282   91.9594   11.9262 F       1  UNL1       -0.2026
      6 C          64.8457   90.7370   14.0272 C.ar    1  UNL1        0.1549
      7 C          65.0153   89.4803   14.8284 C.ar    1  UNL1        0.0553
      8 C          64.4371   88.1892   14.3297 C.ar    1  UNL1        0.1759
      9 F          64.6068   86.9325   15.1310 F       1  UNL1       -0.2009
     10 S          65.4239   92.0282   14.5259 S.O2    1  UNL1        0.0773
     11 O          66.3501   92.0688   13.3467 O.2     1  UNL1       -0.1498
     12 O          64.4977   91.9875   15.7051 O.2     1  UNL1       -0.1498
     13 N          66.0021   93.3193   15.0245 N.pl3   1  UNL1       -0.1925
     14 H          65.4527   94.1362   15.0272 H       1  UNL1        0.1758
     15 C          67.4176   93.3658   15.5190 C.ar    1  UNL1        0.1977
     16 N          68.2739   94.5926   15.6273 N.ar    1  UNL1       -0.1997
     17 C          69.6107   94.1787   16.1672 C.ar    1  UNL1        0.2082
     18 N          69.5806   92.6960   16.3926 N.ar    1  UNL1       -0.1840
     19 S          68.2252   92.1936   15.9920 S.2     1  UNL1        0.0508
     20 C          62.0087   85.7501   10.4589 C.ar    1  UNL1        0.0527
     21 C          60.9706   85.7618    9.3762 C.ar    1  UNL1        0.0159
     22 C          59.9966   86.8988    9.2834 C.ar    1  UNL1        0.0579
     23 CL         58.9585   86.9105    8.2007 Cl      1  UNL1       -0.0822
     24 C          60.0608   88.0241   10.2731 C.ar    1  UNL1        0.0145
     25 C          61.0989   88.0124   11.3558 C.ar    1  UNL1        0.0384
     26 C          62.0728   86.8754   11.4486 C.ar    1  UNL1        0.1468
     27 N          63.4456   83.9497   11.8150 N.ar    1  UNL1       -0.2499
     28 N          64.4138   82.8665   11.4418 N.ar    1  UNL1       -0.1677
     29 C          64.5492   82.8604    9.9479 C.ar    1  UNL1        0.1217
     30 C          63.6647   83.9398    9.3979 C.ar    1  UNL1        0.0413
     31 C          62.9827   84.6131   10.5518 C.ar    1  UNL1        0.0824
     32 C          61.9783   85.1692   16.5677 C.3     1  UNL1        0.0897
     33 N          62.4081   84.8120   15.1756 N.3     1  UNL1       -0.2681
     34 C          63.7264   84.5759   14.5003 C.3     1  UNL1        0.0982
     35 C          63.0159   84.3069   13.2070 C.3     1  UNL1        0.1369
     36 C          61.6975   84.5430   13.8824 C.3     1  UNL1        0.0982
@<TRIPOS>BOND
     1    32    33    1
     2    33    34    1
     3    34    35    1
     4    35    27    1
     5    27    28   ar
     6    28    29   ar
     7    29    30   ar
     8    30    31   ar
     9    31    20    1
    10    20    21   ar
    11    21    22   ar
    12    22    23    1
    13    22    24   ar
    14    24    25   ar
    15    25    26   ar
    16    26     1    1
    17     1     2    1
    18     2     3   ar
    19     3     4   ar
    20     4     5    1
    21     4     6   ar
    22     6    10    1
    23    10    11    2
    24    10    12    2
    25    10    13    1
    26    13    15    1
    27    15    16   ar
    28    16    17   ar
    29    17    18   ar
    30    18    19   ar
    31     6     7   ar
    32     7     8   ar
    33     8     9    1
    34    35    36    1
    35    36    33    1
    36    31    27   ar
    37    26    20   ar
    38     8     2   ar
    39    19    15   ar
    40    13    14    1
@<TRIPOS>MOLECULE
*****
 36 40 0 0 0
SMALL
GASTEIGER

@<TRIPOS>ATOM
      1 O          62.1335   89.8829   11.7969 O.3     1  UNL1       -0.4511
      2 C          62.3529   88.4115   11.6054 C.ar    1  UNL1        0.1748
      3 C          63.1195   87.6279   12.6294 C.ar    1  UNL1        0.0708
      4 C          63.3389   86.1565   12.4378 C.ar    1  UNL1        0.1621
      5 F          64.1054   85.3729   13.4617 F       1  UNL1       -0.2026
      6 C          62.7916   85.4685   11.2223 C.ar    1  UNL1        0.1549
      7 C          62.0251   86.2521   10.1984 C.ar    1  UNL1        0.0553
      8 C          61.8057   87.7235   10.3900 C.ar    1  UNL1        0.1759
      9 F          61.0391   88.5071    9.3660 F       1  UNL1       -0.2009
     10 S          63.0110   83.9971   11.0308 S.O2    1  UNL1        0.0773
     11 O          62.1377   83.7125   12.2167 O.2     1  UNL1       -0.1498
     12 O          63.8844   84.2817    9.8449 O.2     1  UNL1       -0.1498
     13 N          63.2304   82.5256   10.8393 N.pl3   1  UNL1       -0.1925
     14 H          63.3757   82.1631    9.9355 H       1  UNL1        0.1758
     15 C          63.2284   81.6065   12.0247 C.ar    1  UNL1        0.1977
     16 N          62.4680   80.3187   12.1406 N.ar    1  UNL1       -0.1997
     17 C          62.7560   79.7300   13.4898 C.ar    1  UNL1        0.2082
     18 N          63.6945   80.6541   14.2079 N.ar    1  UNL1       -0.1840
     19 S          63.9864   81.8137   13.3024 S.2     1  UNL1        0.0508
     20 C          64.0787   91.2930   12.7858 C.ar    1  UNL1        0.0527
     21 C          65.2160   92.2520   12.5941 C.ar    1  UNL1        0.0159
     22 C          65.5454   92.7600   11.2217 C.ar    1  UNL1        0.0579
     23 CL         66.6827   93.7191   11.0300 Cl      1  UNL1       -0.0822
     24 C          64.7375   92.3091   10.0411 C.ar    1  UNL1        0.0145
     25 C          63.6002   91.3500   10.2328 C.ar    1  UNL1        0.0384
     26 C          63.2708   90.8420   11.6052 C.ar    1  UNL1        0.1468
     27 N          64.5814   90.9744   15.3918 N.ar    1  UNL1       -0.2499
     28 N          63.8764   90.3048   16.5339 N.ar    1  UNL1       -0.1677
     29 C          62.6085   89.7014   16.0062 C.ar    1  UNL1        0.1217
     30 C          62.5300   89.9981   14.5379 C.ar    1  UNL1        0.0413
     31 C          63.7493   90.7849   14.1582 C.ar    1  UNL1        0.0824
     32 C          69.0458   93.4697   15.6574 C.3     1  UNL1        0.0897
     33 N          67.7382   92.7389   15.5796 N.3     1  UNL1       -0.2681
     34 C          67.2864   91.4324   14.9975 C.3     1  UNL1        0.0982
     35 C          65.8890   91.7052   15.4696 C.3     1  UNL1        0.1369
     36 C          66.3409   93.0118   16.0517 C.3     1  UNL1        0.0982
@<TRIPOS>BOND
     1    32    33    1
     2    33    34    1
     3    34    35    1
     4    35    27    1
     5    27    28   ar
     6    28    29   ar
     7    29    30   ar
     8    30    31   ar
     9    31    20    1
    10    20    21   ar
    11    21    22   ar
    12    22    23    1
    13    22    24   ar
    14    24    25   ar
    15    25    26   ar
    16    26     1    1
    17     1     2    1
    18     2     3   ar
    19     3     4   ar
    20     4     5    1
    21     4     6   ar
    22     6    10    1
    23    10    11    2
    24    10    12    2
    25    10    13    1
    26    13    15    1
    27    15    16   ar
    28    16    17   ar
    29    17    18   ar
    30    18    19   ar
    31     6     7   ar
    32     7     8   ar
    33     8     9    1
    34    35    36    1
    35    36    33    1
    36    31    27   ar
    37    26    20   ar
    38     8     2   ar
    39    19    15   ar
    40    13    14    1
