@<TRIPOS>MOLECULE
*****
 18 19 0 0 0
SMALL
GASTEIGER

@<TRIPOS>ATOM
      1 C          64.1927   90.1421   14.4813 C.2     1  UNL1        0.0435
      2 C          64.3562   88.7214   14.9338 C.2     1  UNL1        0.0033
      3 O          63.4902   91.7459   16.4007 O.2     1  UNL1       -0.2850
      4 C          64.5169   91.2690   15.4165 C.2     1  UNL1        0.2111
      5 C          65.8678   91.9193   15.3676 C.ar    1  UNL1        0.0961
      6 C          66.9333   91.6626   14.3435 C.ar    1  UNL1        0.0218
      7 C          68.1143   92.5250   14.6772 C.ar    1  UNL1        0.0200
      8 C          67.7788   93.3147   15.9076 C.ar    1  UNL1        0.0725
      9 N          66.3903   92.9404   16.3343 N.ar    1  UNL1       -0.3495
     10 H          65.9069   93.3014   17.1122 H       1  UNL1        0.1661
     11 C          64.0320   87.5943   13.9985 C.2     1  UNL1        0.0001
     12 C          64.2084   86.1737   14.4464 C.2     1  UNL1        0.0000
     13 C          63.8842   85.0466   13.5112 C.ar    1  UNL1        0.0000
     14 C          64.5378   83.7089   13.6937 C.ar    1  UNL1        0.0000
     15 C          64.2136   82.5819   12.7584 C.ar    1  UNL1        0.0000
     16 C          63.2357   82.7926   11.6407 C.ar    1  UNL1        0.0000
     17 C          62.5821   84.1303   11.4581 C.ar    1  UNL1        0.0000
     18 C          62.9063   85.2573   12.3934 C.ar    1  UNL1        0.0000
@<TRIPOS>BOND
     1     3     4    2
     2     4     1    1
     3     1     2    2
     4     2    11    1
     5    11    12    2
     6    12    13    1
     7    13    14   ar
     8    14    15   ar
     9    15    16   ar
    10    16    17   ar
    11    17    18   ar
    12     4     5    1
    13     5     6   ar
    14     6     7   ar
    15     7     8   ar
    16     8     9   ar
    17    18    13   ar
    18     9     5   ar
    19     9    10    1
@<TRIPOS>MOLECULE
*****
 18 19 0 0 0
SMALL
GASTEIGER

@<TRIPOS>ATOM
      1 C          64.1305   90.2768   14.6326 C.2     1  UNL1        0.0435
      2 C          63.6109   90.5835   13.2593 C.2     1  UNL1        0.0033
      3 O          63.5672   91.9285   16.5572 O.2     1  UNL1       -0.2850
      4 C          64.5384   91.3937   15.5469 C.2     1  UNL1        0.2111
      5 C          65.9175   91.9760   15.4509 C.ar    1  UNL1        0.0961
      6 C          66.9762   91.5774   14.4660 C.ar    1  UNL1        0.0218
      7 C          68.1930   92.4141   14.7294 C.ar    1  UNL1        0.0200
      8 C          67.8862   93.3300   15.8771 C.ar    1  UNL1        0.0725
      9 N          66.4798   93.0592   16.3230 N.ar    1  UNL1       -0.3495
     10 H          66.0086   93.5127   17.0589 H       1  UNL1        0.1661
     11 C          63.2031   89.4665   12.3449 C.2     1  UNL1        0.0001
     12 C          61.9842   89.6102   11.4826 C.2     1  UNL1        0.0000
     13 C          61.5764   88.4932   10.5682 C.ar    1  UNL1        0.0000
     14 C          60.6357   88.7606    9.4309 C.ar    1  UNL1        0.0000
     15 C          60.2279   87.6436    8.5166 C.ar    1  UNL1        0.0000
     16 C          60.7608   86.2593    8.7396 C.ar    1  UNL1        0.0000
     17 C          61.7015   85.9920    9.8769 C.ar    1  UNL1        0.0000
     18 C          62.1093   87.1089   10.7912 C.ar    1  UNL1        0.0000
@<TRIPOS>BOND
     1     3     4    2
     2     4     1    1
     3     1     2    2
     4     2    11    1
     5    11    12    2
     6    12    13    1
     7    13    14   ar
     8    14    15   ar
     9    15    16   ar
    10    16    17   ar
    11    17    18   ar
    12     4     5    1
    13     5     6   ar
    14     6     7   ar
    15     7     8   ar
    16     8     9   ar
    17    18    13   ar
    18     9     5   ar
    19     9    10    1
@<TRIPOS>MOLECULE
*****
 18 19 0 0 0
SMALL
GASTEIGER

@<TRIPOS>ATOM
      1 C          64.9522   91.9803   11.5485 C.2     1  UNL1        0.0435
      2 C          63.9756   91.2590   12.4294 C.2     1  UNL1        0.0033
      3 O          65.7763   94.4378   11.3718 O.2     1  UNL1       -0.2850
      4 C          65.7529   93.1244   12.0960 C.2     1  UNL1        0.2111
      5 C          66.5303   92.9552   13.3677 C.ar    1  UNL1        0.0961
      6 C          67.4611   91.8234   13.6881 C.ar    1  UNL1        0.0218
      7 C          68.0193   92.0568   15.0606 C.ar    1  UNL1        0.0200
      8 C          67.4335   93.3328   15.5885 C.ar    1  UNL1        0.0725
      9 N          66.5133   93.8880   14.5422 N.ar    1  UNL1       -0.3495
     10 H          65.9900   94.7188   14.6138 H       1  UNL1        0.1661
     11 C          63.1748   90.1148   11.8819 C.2     1  UNL1        0.0001
     12 C          62.6485   90.1714   10.4785 C.2     1  UNL1        0.0000
     13 C          61.8477   89.0272    9.9310 C.ar    1  UNL1        0.0000
     14 C          60.5960   89.2943    9.1487 C.ar    1  UNL1        0.0000
     15 C          59.7954   88.1501    8.6013 C.ar    1  UNL1        0.0000
     16 C          60.2463   86.7389    8.8362 C.ar    1  UNL1        0.0000
     17 C          61.4980   86.4719    9.6184 C.ar    1  UNL1        0.0000
     18 C          62.2987   87.6160   10.1658 C.ar    1  UNL1        0.0000
@<TRIPOS>BOND
     1     3     4    2
     2     4     1    1
     3     1     2    2
     4     2    11    1
     5    11    12    2
     6    12    13    1
     7    13    14   ar
     8    14    15   ar
     9    15    16   ar
    10    16    17   ar
    11    17    18   ar
    12     4     5    1
    13     5     6   ar
    14     6     7   ar
    15     7     8   ar
    16     8     9   ar
    17    18    13   ar
    18     9     5   ar
    19     9    10    1
@<TRIPOS>MOLECULE
*****
 18 19 0 0 0
SMALL
GASTEIGER

@<TRIPOS>ATOM
      1 C          64.5899   92.1304   10.4986 C.2     1  UNL1        0.0435
      2 C          63.5386   91.2258   11.0699 C.2     1  UNL1        0.0033
      3 O          65.5973   92.6077   12.8453 O.2     1  UNL1       -0.2850
      4 C          65.4095   92.9962   11.4088 C.2     1  UNL1        0.2111
      5 C          66.0414   94.2507   10.8824 C.ar    1  UNL1        0.0961
      6 C          66.9916   94.3408    9.7252 C.ar    1  UNL1        0.0218
      7 C          67.3714   95.7811    9.5484 C.ar    1  UNL1        0.0200
      8 C          66.6560   96.5812   10.5964 C.ar    1  UNL1        0.0725
      9 N          65.8340   95.6354   11.4207 N.ar    1  UNL1       -0.3495
     10 H          65.2593   95.8803   12.1816 H       1  UNL1        0.1661
     11 C          62.7189   90.3599   10.1597 C.2     1  UNL1        0.0001
     12 C          62.4360   88.9351   10.5339 C.2     1  UNL1        0.0000
     13 C          61.6163   88.0692    9.6237 C.ar    1  UNL1        0.0000
     14 C          62.0948   86.6935    9.2655 C.ar    1  UNL1        0.0000
     15 C          61.2752   85.8276    8.3554 C.ar    1  UNL1        0.0000
     16 C          59.9769   86.3375    7.8035 C.ar    1  UNL1        0.0000
     17 C          59.4984   87.7132    8.1617 C.ar    1  UNL1        0.0000
     18 C          60.3181   88.5791    9.0718 C.ar    1  UNL1        0.0000
@<TRIPOS>BOND
     1     3     4    2
     2     4     1    1
     3     1     2    2
     4     2    11    1
     5    11    12    2
     6    12    13    1
     7    13    14   ar
     8    14    15   ar
     9    15    16   ar
    10    16    17   ar
    11    17    18   ar
    12     4     5    1
    13     5     6   ar
    14     6     7   ar
    15     7     8   ar
    16     8     9   ar
    17    18    13   ar
    18     9     5   ar
    19     9    10    1
@<TRIPOS>MOLECULE
*****
 18 19 0 0 0
SMALL
GASTEIGER

@<TRIPOS>ATOM
      1 C          64.1045   88.8622   14.0324 C.2     1  UNL1        0.0435
      2 C          64.4084   87.5954   14.7759 C.2     1  UNL1        0.0033
      3 O          63.4975   90.5566   15.9060 O.2     1  UNL1       -0.2850
      4 C          64.3089   90.1904   14.6987 C.2     1  UNL1        0.2111
      5 C          65.3247   91.1525   14.1578 C.ar    1  UNL1        0.0961
      6 C          66.6692   91.4438   14.7557 C.ar    1  UNL1        0.0218
      7 C          67.3498   92.4635   13.8914 C.ar    1  UNL1        0.0200
      8 C          66.4259   92.8024   12.7593 C.ar    1  UNL1        0.0725
      9 N          65.1744   91.9922   12.9240 N.ar    1  UNL1       -0.3495
     10 H          64.3917   92.0086   12.3270 H       1  UNL1        0.1661
     11 C          64.2040   86.2672   14.1096 C.2     1  UNL1        0.0001
     12 C          63.6387   85.1165   14.8883 C.2     1  UNL1        0.0000
     13 C          63.4342   83.7882   14.2219 C.ar    1  UNL1        0.0000
     14 C          64.2665   83.4097   13.0328 C.ar    1  UNL1        0.0000
     15 C          64.0621   82.0815   12.3665 C.ar    1  UNL1        0.0000
     16 C          63.0254   81.1318   12.8893 C.ar    1  UNL1        0.0000
     17 C          62.1931   81.5103   14.0784 C.ar    1  UNL1        0.0000
     18 C          62.3975   82.8385   14.7447 C.ar    1  UNL1        0.0000
@<TRIPOS>BOND
     1     3     4    2
     2     4     1    1
     3     1     2    2
     4     2    11    1
     5    11    12    2
     6    12    13    1
     7    13    14   ar
     8    14    15   ar
     9    15    16   ar
    10    16    17   ar
    11    17    18   ar
    12     4     5    1
    13     5     6   ar
    14     6     7   ar
    15     7     8   ar
    16     8     9   ar
    17    18    13   ar
    18     9     5   ar
    19     9    10    1
@<TRIPOS>MOLECULE
*****
 18 19 0 0 0
SMALL
GASTEIGER

@<TRIPOS>ATOM
      1 C          63.1236   84.7069   12.6775 C.2     1  UNL1        0.0435
      2 C          62.9394   84.3555   11.2310 C.2     1  UNL1        0.0033
      3 O          64.7801   83.9910   14.5467 O.2     1  UNL1       -0.2850
      4 C          63.6262   83.6740   13.6422 C.2     1  UNL1        0.2111
      5 C          62.9749   82.3241   13.7023 C.ar    1  UNL1        0.0961
      6 C          63.4120   81.1001   12.9534 C.ar    1  UNL1        0.0218
      7 C          62.4795   79.9807   13.3101 C.ar    1  UNL1        0.0200
      8 C          61.4659   80.5129   14.2795 C.ar    1  UNL1        0.0725
      9 N          61.7722   81.9611   14.5219 N.ar    1  UNL1       -0.3495
     10 H          61.2717   82.5671   15.1148 H       1  UNL1        0.1661
     11 C          62.4368   85.3884   10.2663 C.2     1  UNL1        0.0001
     12 C          61.0917   86.0183   10.4754 C.2     1  UNL1        0.0000
     13 C          60.5891   87.0512    9.5107 C.ar    1  UNL1        0.0000
     14 C          59.7155   86.6424    8.3619 C.ar    1  UNL1        0.0000
     15 C          59.2130   87.6753    7.3973 C.ar    1  UNL1        0.0000
     16 C          59.5840   89.1170    7.5815 C.ar    1  UNL1        0.0000
     17 C          60.4575   89.5258    8.7303 C.ar    1  UNL1        0.0000
     18 C          60.9601   88.4929    9.6949 C.ar    1  UNL1        0.0000
@<TRIPOS>BOND
     1     3     4    2
     2     4     1    1
     3     1     2    2
     4     2    11    1
     5    11    12    2
     6    12    13    1
     7    13    14   ar
     8    14    15   ar
     9    15    16   ar
    10    16    17   ar
    11    17    18   ar
    12     4     5    1
    13     5     6   ar
    14     6     7   ar
    15     7     8   ar
    16     8     9   ar
    17    18    13   ar
    18     9     5   ar
    19     9    10    1
@<TRIPOS>MOLECULE
*****
 18 19 0 0 0
SMALL
GASTEIGER

@<TRIPOS>ATOM
      1 C          62.2094   88.5664   10.3335 C.2     1  UNL1        0.0435
      2 C          61.9627   90.0442   10.4059 C.2     1  UNL1        0.0033
      3 O          59.7290   87.8011   10.2254 O.2     1  UNL1       -0.2850
      4 C          61.1539   87.6561    9.7796 C.2     1  UNL1        0.2111
      5 C          61.5231   86.6006    8.7797 C.ar    1  UNL1        0.0961
      6 C          62.8378   85.8828    8.7001 C.ar    1  UNL1        0.0218
      7 C          62.7696   84.9162    7.5551 C.ar    1  UNL1        0.0200
      8 C          61.4128   85.0366    6.9269 C.ar    1  UNL1        0.0725
      9 N          60.6424   86.0776    7.6838 N.ar    1  UNL1       -0.3495
     10 H          59.7206   86.3669    7.4945 H       1  UNL1        0.1661
     11 C          63.0183   90.9546   10.9599 C.2     1  UNL1        0.0001
     12 C          63.6187   90.6753   12.3058 C.2     1  UNL1        0.0000
     13 C          64.6743   91.5857   12.8598 C.ar    1  UNL1        0.0000
     14 C          65.2991   92.6303   11.9833 C.ar    1  UNL1        0.0000
     15 C          66.3546   93.5407   12.5373 C.ar    1  UNL1        0.0000
     16 C          66.7854   93.4065   13.9678 C.ar    1  UNL1        0.0000
     17 C          66.1605   92.3619   14.8443 C.ar    1  UNL1        0.0000
     18 C          65.1050   91.4515   14.2903 C.ar    1  UNL1        0.0000
@<TRIPOS>BOND
     1     3     4    2
     2     4     1    1
     3     1     2    2
     4     2    11    1
     5    11    12    2
     6    12    13    1
     7    13    14   ar
     8    14    15   ar
     9    15    16   ar
    10    16    17   ar
    11    17    18   ar
    12     4     5    1
    13     5     6   ar
    14     6     7   ar
    15     7     8   ar
    16     8     9   ar
    17    18    13   ar
    18     9     5   ar
    19     9    10    1
@<TRIPOS>MOLECULE
*****
 18 19 0 0 0
SMALL
GASTEIGER

@<TRIPOS>ATOM
      1 C          62.3603   90.6138   10.7512 C.2     1  UNL1        0.0435
      2 C          62.7538   90.5496   12.1972 C.2     1  UNL1        0.0033
      3 O          59.7833   90.6912   10.4305 O.2     1  UNL1       -0.2850
      4 C          61.0885   89.9654   10.2906 C.2     1  UNL1        0.2111
      5 C          61.1220   88.5912    9.6901 C.ar    1  UNL1        0.0961
      6 C          62.2660   87.6239    9.7649 C.ar    1  UNL1        0.0218
      7 C          61.8683   86.3780    9.0305 C.ar    1  UNL1        0.0200
      8 C          60.4785   86.5752    8.5017 C.ar    1  UNL1        0.0725
      9 N          60.0172   87.9430    8.9095 N.ar    1  UNL1       -0.3495
     10 H          59.1429   88.3448    8.7012 H       1  UNL1        0.1661
     11 C          64.0256   91.1980   12.6579 C.2     1  UNL1        0.0001
     12 C          64.5444   90.9335   14.0402 C.2     1  UNL1        0.0000
     13 C          65.8162   91.5819   14.5009 C.ar    1  UNL1        0.0000
     14 C          67.0416   91.5266   13.6377 C.ar    1  UNL1        0.0000
     15 C          68.3134   92.1750   14.0984 C.ar    1  UNL1        0.0000
     16 C          68.3596   92.8786   15.4223 C.ar    1  UNL1        0.0000
     17 C          67.1342   92.9339   16.2855 C.ar    1  UNL1        0.0000
     18 C          65.8625   92.2856   15.8248 C.ar    1  UNL1        0.0000
@<TRIPOS>BOND
     1     3     4    2
     2     4     1    1
     3     1     2    2
     4     2    11    1
     5    11    12    2
     6    12    13    1
     7    13    14   ar
     8    14    15   ar
     9    15    16   ar
    10    16    17   ar
    11    17    18   ar
    12     4     5    1
    13     5     6   ar
    14     6     7   ar
    15     7     8   ar
    16     8     9   ar
    17    18    13   ar
    18     9     5   ar
    19     9    10    1
@<TRIPOS>MOLECULE
*****
 18 19 0 0 0
SMALL
GASTEIGER

@<TRIPOS>ATOM
      1 C          63.7089   84.0168   11.6458 C.2     1  UNL1        0.0435
      2 C          62.5651   84.9429   11.3561 C.2     1  UNL1        0.0033
      3 O          64.1445   81.9171   10.1791 O.2     1  UNL1       -0.2850
      4 C          63.5589   82.5431   11.4100 C.2     1  UNL1        0.2111
      5 C          62.8233   81.6954   12.4052 C.ar    1  UNL1        0.0961
      6 C          62.0802   82.1935   13.6092 C.ar    1  UNL1        0.0218
      7 C          61.4992   81.0066   14.3191 C.ar    1  UNL1        0.0200
      8 C          61.8833   79.7750   13.5538 C.ar    1  UNL1        0.0725
      9 N          62.7016   80.2007   12.3709 N.ar    1  UNL1       -0.3495
     10 H          63.0905   79.6039   11.6914 H       1  UNL1        0.1661
     11 C          62.7151   86.4167   11.5919 C.2     1  UNL1        0.0001
     12 C          63.4616   86.9116   12.7952 C.2     1  UNL1        0.0000
     13 C          63.6115   88.3854   13.0310 C.ar    1  UNL1        0.0000
     14 C          64.2802   88.8811   14.2789 C.ar    1  UNL1        0.0000
     15 C          64.4301   90.3548   14.5146 C.ar    1  UNL1        0.0000
     16 C          63.9115   91.3328   13.5025 C.ar    1  UNL1        0.0000
     17 C          63.2428   90.8372   12.2546 C.ar    1  UNL1        0.0000
     18 C          63.0929   89.3635   12.0189 C.ar    1  UNL1        0.0000
@<TRIPOS>BOND
     1     3     4    2
     2     4     1    1
     3     1     2    2
     4     2    11    1
     5    11    12    2
     6    12    13    1
     7    13    14   ar
     8    14    15   ar
     9    15    16   ar
    10    16    17   ar
    11    17    18   ar
    12     4     5    1
    13     5     6   ar
    14     6     7   ar
    15     7     8   ar
    16     8     9   ar
    17    18    13   ar
    18     9     5   ar
    19     9    10    1
