@<TRIPOS>MOLECULE
*****
 32 35 0 0 0
SMALL
GASTEIGER

@<TRIPOS>ATOM
      1 N          63.5146   86.2356   14.8206 N.pl3   1  UNL1       -0.3041
      2 C          64.2607   87.0455   13.8022 C.3     1  UNL1        0.1123
      3 C          64.4991   88.5080   14.0353 C.3     1  UNL1        0.1148
      4 N          63.9914   89.1605   15.2869 N.am    1  UNL1       -0.2755
      5 C          64.2298   90.6230   15.5200 C.2     1  UNL1        0.2335
      6 O          63.7221   91.2755   16.7715 O.2     1  UNL1       -0.2742
      7 C          63.2453   88.3506   16.3053 C.3     1  UNL1        0.1148
      8 C          63.0069   86.8881   16.0722 C.3     1  UNL1        0.1123
      9 C          62.7994   81.8481   14.1213 C.ar    1  UNL1        0.1058
     10 C          64.0060   82.5149   13.5301 C.ar    1  UNL1        0.0196
     11 C          64.2444   83.9774   13.7632 C.ar    1  UNL1        0.0158
     12 C          63.2762   84.7731   14.5875 C.ar    1  UNL1        0.0480
     13 C          62.0696   84.1063   15.1787 C.ar    1  UNL1        0.0158
     14 C          61.8312   82.6438   14.9456 C.ar    1  UNL1        0.0196
     15 C          62.3226   78.9232   13.6551 C.3     1  UNL1        0.1816
     16 S          62.5610   80.3857   13.8882 S.O2    1  UNL1        0.0105
     17 O          61.1175   80.6679   13.5939 O.2     1  UNL1       -0.1686
     18 O          64.0045   80.1034   14.1825 O.2     1  UNL1       -0.1686
     19 C          64.9759   91.4329   14.5015 C.3     1  UNL1        0.1226
     20 C          66.2274   92.1614   14.8931 C.ar    1  UNL1       -0.0097
     21 C          67.3130   91.4412   15.6366 C.ar    1  UNL1       -0.0026
     22 C          68.5644   92.1696   16.0281 C.ar    1  UNL1        0.0111
     23 C          68.7302   93.6184   15.6761 C.ar    1  UNL1        0.0577
     24 CL         69.9816   94.3468   16.0676 Cl      1  UNL1       -0.0822
     25 C          67.6446   94.3385   14.9326 C.ar    1  UNL1        0.0111
     26 C          66.3932   93.6100   14.5411 C.ar    1  UNL1       -0.0026
     27 C          64.4706   91.5144   13.0915 C.ar    1  UNL1        0.0094
     28 C          65.3146   92.1524   12.0281 C.ar    1  UNL1       -0.0004
     29 C          64.8093   92.2340   10.6181 C.ar    1  UNL1        0.0204
     30 C          63.4601   91.6775   10.2715 C.ar    1  UNL1        0.0989
     31 N          62.6162   91.0395   11.3349 N.ar    1  UNL1       -0.2426
     32 C          63.1215   90.9580   12.7449 C.ar    1  UNL1        0.0954
@<TRIPOS>BOND
     1    15    16    1
     2    16    17    2
     3    16    18    2
     4    16     9    1
     5     9    10   ar
     6    10    11   ar
     7    11    12   ar
     8    12     1    1
     9     1     2    1
    10     2     3    1
    11     3     4    1
    12     4     5   am
    13     5     6    2
    14     5    19    1
    15    19    20    1
    16    20    21   ar
    17    21    22   ar
    18    22    23   ar
    19    23    24    1
    20    23    25   ar
    21    25    26   ar
    22    19    27    1
    23    27    28   ar
    24    28    29   ar
    25    29    30   ar
    26    30    31   ar
    27    31    32   ar
    28     4     7    1
    29     7     8    1
    30    12    13   ar
    31    13    14   ar
    32    14     9   ar
    33     8     1    1
    34    26    20   ar
    35    32    27   ar
@<TRIPOS>MOLECULE
*****
 32 35 0 0 0
SMALL
GASTEIGER

@<TRIPOS>ATOM
      1 N          62.8826   86.5183   12.4241 N.pl3   1  UNL1       -0.3041
      2 C          63.9074   87.3563   13.1293 C.3     1  UNL1        0.1123
      3 C          64.0770   88.8007   12.7617 C.3     1  UNL1        0.1148
      4 N          63.2217   89.4069   11.6889 N.am    1  UNL1       -0.2755
      5 C          63.3913   90.8513   11.3213 C.2     1  UNL1        0.2335
      6 O          62.5360   91.4576   10.2485 O.2     1  UNL1       -0.2742
      7 C          62.1969   88.5689   10.9837 C.3     1  UNL1        0.1148
      8 C          62.0274   87.1245   11.3513 C.3     1  UNL1        0.1123
      9 C          62.3740   82.1852   13.5268 C.ar    1  UNL1        0.1058
     10 C          62.5150   82.5811   12.0869 C.ar    1  UNL1        0.0196
     11 C          62.6845   84.0255   11.7193 C.ar    1  UNL1        0.0158
     12 C          62.7131   85.0739   12.7917 C.ar    1  UNL1        0.0480
     13 C          62.5721   84.6780   14.2315 C.ar    1  UNL1        0.0158
     14 C          62.4025   83.2337   14.5991 C.ar    1  UNL1        0.0196
     15 C          62.0349   79.2965   14.2620 C.3     1  UNL1        0.1816
     16 S          62.2044   80.7409   13.8944 S.O2    1  UNL1        0.0105
     17 O          60.7155   80.9216   13.9179 O.2     1  UNL1       -0.1686
     18 O          63.6933   80.5601   13.8709 O.2     1  UNL1       -0.1686
     19 C          64.4160   91.6894   12.0265 C.3     1  UNL1        0.1226
     20 C          65.3691   92.5337   11.2335 C.ar    1  UNL1       -0.0097
     21 C          65.0405   93.9692   10.9483 C.ar    1  UNL1       -0.0026
     22 C          65.9935   94.8135   10.1553 C.ar    1  UNL1        0.0111
     23 C          67.2752   94.2223    9.6475 C.ar    1  UNL1        0.0577
     24 CL         68.2282   95.0666    8.8545 Cl      1  UNL1       -0.0822
     25 C          67.6037   92.7868    9.9327 C.ar    1  UNL1        0.0111
     26 C          66.6507   91.9425   10.7257 C.ar    1  UNL1       -0.0026
     27 C          64.4878   91.6832   13.5249 C.ar    1  UNL1        0.0094
     28 C          65.6802   92.2695   14.2210 C.ar    1  UNL1       -0.0004
     29 C          65.7520   92.2634   15.7192 C.ar    1  UNL1        0.0204
     30 C          64.6315   91.6708   16.5214 C.ar    1  UNL1        0.0989
     31 N          63.4392   91.0845   15.8253 N.ar    1  UNL1       -0.2426
     32 C          63.3674   91.0907   14.3270 C.ar    1  UNL1        0.0954
@<TRIPOS>BOND
     1    15    16    1
     2    16    17    2
     3    16    18    2
     4    16     9    1
     5     9    10   ar
     6    10    11   ar
     7    11    12   ar
     8    12     1    1
     9     1     2    1
    10     2     3    1
    11     3     4    1
    12     4     5   am
    13     5     6    2
    14     5    19    1
    15    19    20    1
    16    20    21   ar
    17    21    22   ar
    18    22    23   ar
    19    23    24    1
    20    23    25   ar
    21    25    26   ar
    22    19    27    1
    23    27    28   ar
    24    28    29   ar
    25    29    30   ar
    26    30    31   ar
    27    31    32   ar
    28     4     7    1
    29     7     8    1
    30    12    13   ar
    31    13    14   ar
    32    14     9   ar
    33     8     1    1
    34    26    20   ar
    35    32    27   ar
@<TRIPOS>MOLECULE
*****
 32 35 0 0 0
SMALL
GASTEIGER

@<TRIPOS>ATOM
      1 N          64.1126   90.5418   13.2793 N.pl3   1  UNL1       -0.3041
      2 C          64.2741   89.7830   11.9955 C.3     1  UNL1        0.1123
      3 C          63.1118   89.0318   11.4169 C.3     1  UNL1        0.1148
      4 N          61.7879   89.0395   12.1220 N.am    1  UNL1       -0.2755
      5 C          60.6256   88.2883   11.5434 C.2     1  UNL1        0.2335
      6 O          59.3017   88.2960   12.2486 O.2     1  UNL1       -0.2742
      7 C          61.6264   89.7983   13.4058 C.3     1  UNL1        0.1148
      8 C          62.7887   90.5495   13.9844 C.3     1  UNL1        0.1123
      9 C          67.5995   92.7953   15.0151 C.ar    1  UNL1        0.1058
     10 C          67.6254   92.3640   13.5786 C.ar    1  UNL1        0.0196
     11 C          66.4630   91.6129   13.0000 C.ar    1  UNL1        0.0158
     12 C          65.2749   91.2929   13.8579 C.ar    1  UNL1        0.0480
     13 C          65.2491   91.7242   15.2943 C.ar    1  UNL1        0.0158
     14 C          66.4114   92.4753   15.8729 C.ar    1  UNL1        0.0196
     15 C          69.9242   94.2976   16.1723 C.3     1  UNL1        0.1816
     16 S          68.7619   93.5464   15.5937 S.O2    1  UNL1        0.0105
     17 O          69.6620   92.9598   14.5470 O.2     1  UNL1       -0.1686
     18 O          67.8617   94.1330   16.6404 O.2     1  UNL1       -0.1686
     19 C          60.7872   87.5295   10.2597 C.3     1  UNL1        0.1226
     20 C          61.6675   86.3160   10.2115 C.ar    1  UNL1       -0.0097
     21 C          62.3620   85.9435    8.9351 C.ar    1  UNL1       -0.0026
     22 C          63.2423   84.7299    8.8869 C.ar    1  UNL1        0.0111
     23 C          63.4282   83.8889   10.1150 C.ar    1  UNL1        0.0577
     24 CL         64.3085   82.6754   10.0668 Cl      1  UNL1       -0.0822
     25 C          62.7337   84.2614   11.3913 C.ar    1  UNL1        0.0111
     26 C          61.8534   85.4750   11.4395 C.ar    1  UNL1       -0.0026
     27 C          60.0683   87.9842    9.0241 C.ar    1  UNL1        0.0094
     28 C          60.3385   89.3467    8.4579 C.ar    1  UNL1       -0.0004
     29 C          59.6197   89.8014    7.2223 C.ar    1  UNL1        0.0204
     30 C          58.6308   88.8936    6.5530 C.ar    1  UNL1        0.0989
     31 N          58.3607   87.5311    7.1192 N.ar    1  UNL1       -0.2426
     32 C          59.0795   87.0764    8.3548 C.ar    1  UNL1        0.0954
@<TRIPOS>BOND
     1    15    16    1
     2    16    17    2
     3    16    18    2
     4    16     9    1
     5     9    10   ar
     6    10    11   ar
     7    11    12   ar
     8    12     1    1
     9     1     2    1
    10     2     3    1
    11     3     4    1
    12     4     5   am
    13     5     6    2
    14     5    19    1
    15    19    20    1
    16    20    21   ar
    17    21    22   ar
    18    22    23   ar
    19    23    24    1
    20    23    25   ar
    21    25    26   ar
    22    19    27    1
    23    27    28   ar
    24    28    29   ar
    25    29    30   ar
    26    30    31   ar
    27    31    32   ar
    28     4     7    1
    29     7     8    1
    30    12    13   ar
    31    13    14   ar
    32    14     9   ar
    33     8     1    1
    34    26    20   ar
    35    32    27   ar
@<TRIPOS>MOLECULE
*****
 32 35 0 0 0
SMALL
GASTEIGER

@<TRIPOS>ATOM
      1 N          61.4071   86.6456    9.2758 N.pl3   1  UNL1       -0.3041
      2 C          60.9325   86.3447   10.6666 C.3     1  UNL1        0.1123
      3 C          61.6890   85.3734   11.5234 C.3     1  UNL1        0.1148
      4 N          62.9200   84.7029   10.9896 N.am    1  UNL1       -0.2755
      5 C          63.6765   83.7316   11.8465 C.2     1  UNL1        0.2335
      6 O          64.9075   83.0612   11.3127 O.2     1  UNL1       -0.2742
      7 C          63.3946   85.0039    9.5989 C.3     1  UNL1        0.1148
      8 C          62.6381   85.9752    8.7420 C.3     1  UNL1        0.1123
      9 C          59.1377   89.5597    6.7052 C.ar    1  UNL1        0.1058
     10 C          60.0187   90.0624    7.8102 C.ar    1  UNL1        0.0196
     11 C          60.7751   89.0910    8.6671 C.ar    1  UNL1        0.0158
     12 C          60.6506   87.6170    8.4190 C.ar    1  UNL1        0.0480
     13 C          59.7696   87.1143    7.3140 C.ar    1  UNL1        0.0158
     14 C          59.0131   88.0856    6.4571 C.ar    1  UNL1        0.0196
     15 C          57.6247   91.5024    4.9914 C.3     1  UNL1        0.1816
     16 S          58.3812   90.5310    5.8483 S.O2    1  UNL1        0.0105
     17 O          59.6764   91.0876    5.3358 O.2     1  UNL1       -0.1686
     18 O          57.0860   89.9744    6.3608 O.2     1  UNL1       -0.1686
     19 C          63.2019   83.4307   13.2372 C.3     1  UNL1        0.1226
     20 C          63.2181   84.5048   14.2841 C.ar    1  UNL1       -0.0097
     21 C          64.1608   85.6644   14.1544 C.ar    1  UNL1       -0.0026
     22 C          64.1771   86.7385   15.2013 C.ar    1  UNL1        0.0111
     23 C          63.2506   86.6530   16.3779 C.ar    1  UNL1        0.0577
     24 CL         63.2668   87.7271   17.4248 Cl      1  UNL1       -0.0822
     25 C          62.3079   85.4935   16.5076 C.ar    1  UNL1        0.0111
     26 C          62.2917   84.4194   15.4607 C.ar    1  UNL1       -0.0026
     27 C          62.7110   82.0555   13.5811 C.ar    1  UNL1        0.0094
     28 C          61.2432   81.8074   13.7651 C.ar    1  UNL1       -0.0004
     29 C          60.7523   80.4324   14.1089 C.ar    1  UNL1        0.0204
     30 C          61.7293   79.3054   14.2689 C.ar    1  UNL1        0.0989
     31 N          63.1972   79.5535   14.0849 N.ar    1  UNL1       -0.2426
     32 C          63.6880   80.9287   13.7410 C.ar    1  UNL1        0.0954
@<TRIPOS>BOND
     1    15    16    1
     2    16    17    2
     3    16    18    2
     4    16     9    1
     5     9    10   ar
     6    10    11   ar
     7    11    12   ar
     8    12     1    1
     9     1     2    1
    10     2     3    1
    11     3     4    1
    12     4     5   am
    13     5     6    2
    14     5    19    1
    15    19    20    1
    16    20    21   ar
    17    21    22   ar
    18    22    23   ar
    19    23    24    1
    20    23    25   ar
    21    25    26   ar
    22    19    27    1
    23    27    28   ar
    24    28    29   ar
    25    29    30   ar
    26    30    31   ar
    27    31    32   ar
    28     4     7    1
    29     7     8    1
    30    12    13   ar
    31    13    14   ar
    32    14     9   ar
    33     8     1    1
    34    26    20   ar
    35    32    27   ar
@<TRIPOS>MOLECULE
*****
 32 35 0 0 0
SMALL
GASTEIGER

@<TRIPOS>ATOM
      1 N          63.3357   90.4712   12.1551 N.pl3   1  UNL1       -0.3041
      2 C          63.5299   90.1418   10.7047 C.3     1  UNL1        0.1123
      3 C          62.4263   89.4837    9.9308 C.3     1  UNL1        0.1148
      4 N          61.1285   89.1551   10.6072 N.am    1  UNL1       -0.2755
      5 C          60.0249   88.4970    9.8332 C.2     1  UNL1        0.2335
      6 O          58.7271   88.1683   10.5097 O.2     1  UNL1       -0.2742
      7 C          60.9343   89.4845   12.0576 C.3     1  UNL1        0.1148
      8 C          62.0379   90.1425   12.8316 C.3     1  UNL1        0.1123
      9 C          66.6465   92.4454   14.4770 C.ar    1  UNL1        0.1058
     10 C          65.8721   91.3155   15.0883 C.ar    1  UNL1        0.0196
     11 C          64.7685   90.6575   14.3143 C.ar    1  UNL1        0.0158
     12 C          64.4393   91.1293   12.9291 C.ar    1  UNL1        0.0480
     13 C          65.2136   92.2592   12.3178 C.ar    1  UNL1        0.0158
     14 C          66.3172   92.9172   13.0918 C.ar    1  UNL1        0.0196
     15 C          68.8537   93.7616   16.0250 C.3     1  UNL1        0.1816
     16 S          67.7501   93.1035   15.2510 S.O2    1  UNL1        0.0105
     17 O          68.6960   92.8546   14.1138 O.2     1  UNL1       -0.1686
     18 O          66.8041   93.3524   16.3882 O.2     1  UNL1       -0.1686
     19 C          60.2191   88.1676    8.3828 C.3     1  UNL1        0.1226
     20 C          59.7300   89.1139    7.3268 C.ar    1  UNL1       -0.0097
     21 C          58.2630   89.2130    7.0297 C.ar    1  UNL1       -0.0026
     22 C          57.7739   90.1593    5.9736 C.ar    1  UNL1        0.0111
     23 C          58.7518   91.0065    5.2147 C.ar    1  UNL1        0.0577
     24 CL         58.2627   91.9529    4.1586 Cl      1  UNL1       -0.0822
     25 C          60.2187   90.9075    5.5118 C.ar    1  UNL1        0.0111
     26 C          60.7078   89.9612    6.5678 C.ar    1  UNL1       -0.0026
     27 C          60.9025   86.8918    7.9884 C.ar    1  UNL1        0.0094
     28 C          62.2288   86.5342    8.5909 C.ar    1  UNL1       -0.0004
     29 C          62.9121   85.2585    8.1965 C.ar    1  UNL1        0.0204
     30 C          62.2691   84.3403    7.1997 C.ar    1  UNL1        0.0989
     31 N          60.9428   84.6979    6.5972 N.ar    1  UNL1       -0.2426
     32 C          60.2595   85.9737    6.9916 C.ar    1  UNL1        0.0954
@<TRIPOS>BOND
     1    15    16    1
     2    16    17    2
     3    16    18    2
     4    16     9    1
     5     9    10   ar
     6    10    11   ar
     7    11    12   ar
     8    12     1    1
     9     1     2    1
    10     2     3    1
    11     3     4    1
    12     4     5   am
    13     5     6    2
    14     5    19    1
    15    19    20    1
    16    20    21   ar
    17    21    22   ar
    18    22    23   ar
    19    23    24    1
    20    23    25   ar
    21    25    26   ar
    22    19    27    1
    23    27    28   ar
    24    28    29   ar
    25    29    30   ar
    26    30    31   ar
    27    31    32   ar
    28     4     7    1
    29     7     8    1
    30    12    13   ar
    31    13    14   ar
    32    14     9   ar
    33     8     1    1
    34    26    20   ar
    35    32    27   ar
@<TRIPOS>MOLECULE
*****
 32 35 0 0 0
SMALL
GASTEIGER

@<TRIPOS>ATOM
      1 N          64.4737   89.8663   12.9194 N.pl3   1  UNL1       -0.3041
      2 C          63.8633   88.9844   11.8708 C.3     1  UNL1        0.1123
      3 C          63.4443   87.5865   12.2175 C.3     1  UNL1        0.1148
      4 N          63.6356   87.0705   13.6129 N.am    1  UNL1       -0.2755
      5 C          63.2166   85.6726   13.9596 C.2     1  UNL1        0.2335
      6 O          63.4079   85.1565   15.3549 O.2     1  UNL1       -0.2742
      7 C          64.2460   87.9523   14.6615 C.3     1  UNL1        0.1148
      8 C          64.6651   89.3503   14.3148 C.3     1  UNL1        0.1123
      9 C          65.7309   94.0601   11.8793 C.ar    1  UNL1        0.1058
     10 C          66.0726   93.4860   13.2222 C.ar    1  UNL1        0.0196
     11 C          65.6535   92.0880   13.5690 C.ar    1  UNL1        0.0158
     12 C          64.8928   91.2642   12.5727 C.ar    1  UNL1        0.0480
     13 C          64.5511   91.8383   11.2297 C.ar    1  UNL1        0.0158
     14 C          64.9702   93.2363   10.8830 C.ar    1  UNL1        0.0196
     15 C          66.5690   96.8559   11.1858 C.3     1  UNL1        0.1816
     16 S          66.1500   95.4580   11.5326 S.O2    1  UNL1        0.0105
     17 O          66.4246   95.7349   12.9810 O.2     1  UNL1       -0.1686
     18 O          65.8753   95.1811   10.0841 O.2     1  UNL1       -0.1686
     19 C          62.6062   84.7907   12.9110 C.3     1  UNL1        0.1226
     20 C          62.0964   85.3877   11.6328 C.ar    1  UNL1       -0.0097
     21 C          62.6880   84.9670   10.3201 C.ar    1  UNL1       -0.0026
     22 C          62.1782   85.5640    9.0420 C.ar    1  UNL1        0.0111
     23 C          61.0767   86.5817    9.0765 C.ar    1  UNL1        0.0577
     24 CL         60.5669   87.1788    7.7984 Cl      1  UNL1       -0.0822
     25 C          60.4851   87.0024   10.3891 C.ar    1  UNL1        0.0111
     26 C          60.9950   86.4054   11.6673 C.ar    1  UNL1       -0.0026
     27 C          62.5056   83.3117   13.1404 C.ar    1  UNL1        0.0094
     28 C          62.9731   82.3553   12.0838 C.ar    1  UNL1       -0.0004
     29 C          62.8725   80.8764   12.3132 C.ar    1  UNL1        0.0204
     30 C          62.3043   80.3538   13.5994 C.ar    1  UNL1        0.0989
     31 N          61.8368   81.3103   14.6561 N.ar    1  UNL1       -0.2426
     32 C          61.9374   82.7893   14.4266 C.ar    1  UNL1        0.0954
@<TRIPOS>BOND
     1    15    16    1
     2    16    17    2
     3    16    18    2
     4    16     9    1
     5     9    10   ar
     6    10    11   ar
     7    11    12   ar
     8    12     1    1
     9     1     2    1
    10     2     3    1
    11     3     4    1
    12     4     5   am
    13     5     6    2
    14     5    19    1
    15    19    20    1
    16    20    21   ar
    17    21    22   ar
    18    22    23   ar
    19    23    24    1
    20    23    25   ar
    21    25    26   ar
    22    19    27    1
    23    27    28   ar
    24    28    29   ar
    25    29    30   ar
    26    30    31   ar
    27    31    32   ar
    28     4     7    1
    29     7     8    1
    30    12    13   ar
    31    13    14   ar
    32    14     9   ar
    33     8     1    1
    34    26    20   ar
    35    32    27   ar
@<TRIPOS>MOLECULE
*****
 32 35 0 0 0
SMALL
GASTEIGER

@<TRIPOS>ATOM
      1 N          64.2598   90.6444   13.1929 N.pl3   1  UNL1       -0.3041
      2 C          64.3881   89.9892   11.8497 C.3     1  UNL1        0.1123
      3 C          63.2302   89.2310   11.2714 C.3     1  UNL1        0.1148
      4 N          61.9441   89.1278   12.0363 N.am    1  UNL1       -0.2755
      5 C          60.7862   88.3696   11.4580 C.2     1  UNL1        0.2335
      6 O          59.5001   88.2665   12.2229 O.2     1  UNL1       -0.2742
      7 C          61.8158   89.7830   13.3795 C.3     1  UNL1        0.1148
      8 C          62.9736   90.5413   13.9578 C.3     1  UNL1        0.1123
      9 C          67.7333   92.9191   14.9278 C.ar    1  UNL1        0.1058
     10 C          67.3956   91.5537   15.4488 C.ar    1  UNL1        0.0196
     11 C          66.2378   90.7955   14.8705 C.ar    1  UNL1        0.0158
     12 C          65.4176   91.4026   13.7712 C.ar    1  UNL1        0.0480
     13 C          65.7553   92.7680   13.2501 C.ar    1  UNL1        0.0158
     14 C          66.9131   93.5263   13.8284 C.ar    1  UNL1        0.0196
     15 C          70.0490   94.4357   16.0844 C.3     1  UNL1        0.1816
     16 S          68.8912   93.6774   15.5061 S.O2    1  UNL1        0.0105
     17 O          69.8167   93.0028   14.5374 O.2     1  UNL1       -0.1686
     18 O          67.9656   94.3520   16.4747 O.2     1  UNL1       -0.1686
     19 C          60.9145   87.7144   10.1148 C.3     1  UNL1        0.1226
     20 C          60.2437   88.3202    8.9177 C.ar    1  UNL1       -0.0097
     21 C          60.5143   89.7490    8.5493 C.ar    1  UNL1       -0.0026
     22 C          59.8435   90.3548    7.3522 C.ar    1  UNL1        0.0111
     23 C          58.9022   89.5319    6.5235 C.ar    1  UNL1        0.0577
     24 CL         58.2314   90.1377    5.3264 Cl      1  UNL1       -0.0822
     25 C          58.6317   88.1032    6.8918 C.ar    1  UNL1        0.0111
     26 C          59.3024   87.4974    8.0889 C.ar    1  UNL1       -0.0026
     27 C          61.7136   86.4534    9.9686 C.ar    1  UNL1        0.0094
     28 C          62.3467   86.1151    8.6515 C.ar    1  UNL1       -0.0004
     29 C          63.1458   84.8542    8.5053 C.ar    1  UNL1        0.0204
     30 C          63.3118   83.9314    9.6762 C.ar    1  UNL1        0.0989
     31 N          62.6788   84.2697   10.9933 N.ar    1  UNL1       -0.2426
     32 C          61.8796   85.5307   11.1395 C.ar    1  UNL1        0.0954
@<TRIPOS>BOND
     1    15    16    1
     2    16    17    2
     3    16    18    2
     4    16     9    1
     5     9    10   ar
     6    10    11   ar
     7    11    12   ar
     8    12     1    1
     9     1     2    1
    10     2     3    1
    11     3     4    1
    12     4     5   am
    13     5     6    2
    14     5    19    1
    15    19    20    1
    16    20    21   ar
    17    21    22   ar
    18    22    23   ar
    19    23    24    1
    20    23    25   ar
    21    25    26   ar
    22    19    27    1
    23    27    28   ar
    24    28    29   ar
    25    29    30   ar
    26    30    31   ar
    27    31    32   ar
    28     4     7    1
    29     7     8    1
    30    12    13   ar
    31    13    14   ar
    32    14     9   ar
    33     8     1    1
    34    26    20   ar
    35    32    27   ar
@<TRIPOS>MOLECULE
*****
 32 35 0 0 0
SMALL
GASTEIGER

@<TRIPOS>ATOM
      1 N          64.3033   88.8115   13.7025 N.pl3   1  UNL1       -0.3041
      2 C          63.9993   87.8694   12.5755 C.3     1  UNL1        0.1123
      3 C          63.5663   86.4636   12.8692 C.3     1  UNL1        0.1148
      4 N          63.4374   85.9998   14.2898 N.am    1  UNL1       -0.2755
      5 C          63.0045   84.5940   14.5835 C.2     1  UNL1        0.2335
      6 O          62.8756   84.1302   16.0041 O.2     1  UNL1       -0.2742
      7 C          63.7415   86.9418   15.4168 C.3     1  UNL1        0.1148
      8 C          64.1745   88.3477   15.1231 C.3     1  UNL1        0.1123
      9 C          65.6022   93.0289   12.8215 C.ar    1  UNL1        0.1058
     10 C          66.1548   92.3078   14.0150 C.ar    1  UNL1        0.0196
     11 C          65.7219   90.9020   14.3087 C.ar    1  UNL1        0.0158
     12 C          64.7363   90.2173   13.4088 C.ar    1  UNL1        0.0480
     13 C          64.1837   90.9384   12.2153 C.ar    1  UNL1        0.0158
     14 C          64.6166   92.3442   11.9216 C.ar    1  UNL1        0.0196
     15 C          66.4681   95.8405   12.2342 C.3     1  UNL1        0.1816
     16 S          66.0352   94.4347   12.5278 S.O2    1  UNL1        0.0105
     17 O          65.5669   94.2829   11.1109 O.2     1  UNL1       -0.1686
     18 O          66.5034   94.5865   13.9447 O.2     1  UNL1       -0.1686
     19 C          62.7004   83.6520   13.4565 C.3     1  UNL1        0.1226
     20 C          62.6720   84.1565   12.0442 C.ar    1  UNL1       -0.0097
     21 C          63.7115   83.7001   11.0637 C.ar    1  UNL1       -0.0026
     22 C          63.6831   84.2047    9.6513 C.ar    1  UNL1        0.0111
     23 C          62.6152   85.1656    9.2195 C.ar    1  UNL1        0.0577
     24 CL         62.5868   85.6701    7.8072 Cl      1  UNL1       -0.0822
     25 C          61.5758   85.6219   10.2000 C.ar    1  UNL1        0.0111
     26 C          61.6042   85.1174   11.6123 C.ar    1  UNL1       -0.0026
     27 C          62.4248   82.2053   13.7418 C.ar    1  UNL1        0.0094
     28 C          61.0187   81.7439   13.9868 C.ar    1  UNL1       -0.0004
     29 C          60.7430   80.2974   14.2721 C.ar    1  UNL1        0.0204
     30 C          61.8734   79.3122   14.3124 C.ar    1  UNL1        0.0989
     31 N          63.2795   79.7736   14.0674 N.ar    1  UNL1       -0.2426
     32 C          63.5552   81.2202   13.7821 C.ar    1  UNL1        0.0954
@<TRIPOS>BOND
     1    15    16    1
     2    16    17    2
     3    16    18    2
     4    16     9    1
     5     9    10   ar
     6    10    11   ar
     7    11    12   ar
     8    12     1    1
     9     1     2    1
    10     2     3    1
    11     3     4    1
    12     4     5   am
    13     5     6    2
    14     5    19    1
    15    19    20    1
    16    20    21   ar
    17    21    22   ar
    18    22    23   ar
    19    23    24    1
    20    23    25   ar
    21    25    26   ar
    22    19    27    1
    23    27    28   ar
    24    28    29   ar
    25    29    30   ar
    26    30    31   ar
    27    31    32   ar
    28     4     7    1
    29     7     8    1
    30    12    13   ar
    31    13    14   ar
    32    14     9   ar
    33     8     1    1
    34    26    20   ar
    35    32    27   ar
@<TRIPOS>MOLECULE
*****
 32 35 0 0 0
SMALL
GASTEIGER

@<TRIPOS>ATOM
      1 N          61.3685   86.6150    9.1296 N.pl3   1  UNL1       -0.3041
      2 C          60.9036   86.3276   10.5264 C.3     1  UNL1        0.1123
      3 C          61.6314   85.3206   11.3668 C.3     1  UNL1        0.1148
      4 N          62.8240   84.6009   10.8103 N.am    1  UNL1       -0.2755
      5 C          63.5517   83.5939   11.6507 C.2     1  UNL1        0.2335
      6 O          64.7443   82.8742   11.0942 O.2     1  UNL1       -0.2742
      7 C          63.2888   84.8883    9.4134 C.3     1  UNL1        0.1148
      8 C          62.5611   85.8954    8.5731 C.3     1  UNL1        0.1123
      9 C          59.1852   89.6362    6.6084 C.ar    1  UNL1        0.1058
     10 C          60.0264   90.0912    7.7640 C.ar    1  UNL1        0.0196
     11 C          60.7541   89.0842    8.6044 C.ar    1  UNL1        0.0158
     12 C          60.6407   87.6221    8.2892 C.ar    1  UNL1        0.0480
     13 C          59.7996   87.1671    7.1336 C.ar    1  UNL1        0.0158
     14 C          59.0718   88.1741    6.2933 C.ar    1  UNL1        0.0196
     15 C          57.7297   91.6503    4.9277 C.3     1  UNL1        0.1816
     16 S          58.4575   90.6433    5.7681 S.O2    1  UNL1        0.0105
     17 O          59.7690   91.1912    5.2889 O.2     1  UNL1       -0.1686
     18 O          57.1459   90.0953    6.2473 O.2     1  UNL1       -0.1686
     19 C          63.0869   83.3065   13.0475 C.3     1  UNL1        0.1226
     20 C          62.3398   82.0399   13.3437 C.ar    1  UNL1       -0.0097
     21 C          62.9587   80.7116   13.0229 C.ar    1  UNL1       -0.0026
     22 C          62.2117   79.4451   13.3191 C.ar    1  UNL1        0.0111
     23 C          60.8458   79.5067   13.9361 C.ar    1  UNL1        0.0577
     24 CL         60.0988   78.2401   14.2322 Cl      1  UNL1       -0.0822
     25 C          60.2270   80.8349   14.2568 C.ar    1  UNL1        0.0111
     26 C          60.9740   82.1015   13.9606 C.ar    1  UNL1       -0.0026
     27 C          63.3690   84.2857   14.1483 C.ar    1  UNL1        0.0094
     28 C          64.5919   85.1521   14.0861 C.ar    1  UNL1       -0.0004
     29 C          64.8741   86.1313   15.1868 C.ar    1  UNL1        0.0204
     30 C          63.9334   86.2441   16.3497 C.ar    1  UNL1        0.0989
     31 N          62.7105   85.3776   16.4119 N.ar    1  UNL1       -0.2426
     32 C          62.4283   84.3984   15.3112 C.ar    1  UNL1        0.0954
@<TRIPOS>BOND
     1    15    16    1
     2    16    17    2
     3    16    18    2
     4    16     9    1
     5     9    10   ar
     6    10    11   ar
     7    11    12   ar
     8    12     1    1
     9     1     2    1
    10     2     3    1
    11     3     4    1
    12     4     5   am
    13     5     6    2
    14     5    19    1
    15    19    20    1
    16    20    21   ar
    17    21    22   ar
    18    22    23   ar
    19    23    24    1
    20    23    25   ar
    21    25    26   ar
    22    19    27    1
    23    27    28   ar
    24    28    29   ar
    25    29    30   ar
    26    30    31   ar
    27    31    32   ar
    28     4     7    1
    29     7     8    1
    30    12    13   ar
    31    13    14   ar
    32    14     9   ar
    33     8     1    1
    34    26    20   ar
    35    32    27   ar
