@<TRIPOS>MOLECULE
*****
 27 30 0 0 0
SMALL
GASTEIGER

@<TRIPOS>ATOM
      1 O          62.7799   89.7254   15.2798 O.2     1  UNL1       -0.2701
      2 C          63.9965   89.4770   14.4382 C.2     1  UNL1        0.2461
      3 N          64.6409   88.1225   14.4327 N.am    1  UNL1       -0.2968
      4 H          65.4394   87.9595   13.8804 H       1  UNL1        0.1501
      5 C          64.5686   90.5832   13.6021 C.ar    1  UNL1        0.0534
      6 C          65.7487   91.3649   14.0983 C.ar    1  UNL1        0.0045
      7 C          66.3208   92.4710   13.2622 C.ar    1  UNL1        0.0001
      8 C          65.7129   92.7954   11.9298 C.ar    1  UNL1        0.0001
      9 C          64.5328   92.0136   11.4336 C.ar    1  UNL1        0.0001
     10 C          63.9607   90.9075   12.2697 C.ar    1  UNL1        0.0045
     11 C          66.2851   93.9016   11.0937 C.ar    1  UNL1        0.0031
     12 C          67.0896   93.5774    9.8699 C.ar    1  UNL1        0.0207
     13 C          67.6618   94.6836    9.0339 C.ar    1  UNL1        0.0989
     14 N          67.4293   96.1138    9.4215 N.ar    1  UNL1       -0.2423
     15 C          66.6248   96.4380   10.6453 C.ar    1  UNL1        0.0989
     16 C          66.0526   95.3318   11.4813 C.ar    1  UNL1        0.0207
     17 C          64.0688   87.0163   15.2688 C.3     1  UNL1        0.1197
     18 C          63.8234   85.6670   14.6613 C.ar    1  UNL1        0.0345
     19 C          64.1557   84.4250   15.4339 C.ar    1  UNL1        0.0006
     20 C          63.9104   83.0756   14.8264 C.ar    1  UNL1        0.0030
     21 C          63.3328   82.9683   13.4463 C.ar    1  UNL1        0.0400
     22 C          63.0005   84.2103   12.6736 C.ar    1  UNL1        0.1721
     23 C          63.2458   85.5597   13.2811 C.ar    1  UNL1        0.1700
     24 O          62.9136   86.8017   12.5085 O.3     1  UNL1       -0.4686
     25 C          62.3360   86.6943   11.1283 C.3     1  UNL1        0.2526
     26 C          62.0907   85.3450   10.5208 C.3     1  UNL1        0.2526
     27 O          62.4229   84.1030   11.2934 O.3     1  UNL1       -0.4684
@<TRIPOS>BOND
     1     1     2    2
     2     2     3   am
     3     3    17    1
     4    17    18    1
     5    18    19   ar
     6    19    20   ar
     7    20    21   ar
     8    21    22   ar
     9    22    23   ar
    10    23    24    1
    11    24    25    1
    12    25    26    1
    13    26    27    1
    14     2     5    1
    15     5     6   ar
    16     6     7   ar
    17     7     8   ar
    18     8    11    1
    19    11    12   ar
    20    12    13   ar
    21    13    14   ar
    22    14    15   ar
    23    15    16   ar
    24     8     9   ar
    25     9    10   ar
    26    23    18   ar
    27    10     5   ar
    28    27    22    1
    29    16    11   ar
    30     3     4    1
@<TRIPOS>MOLECULE
*****
 27 30 0 0 0
SMALL
GASTEIGER

@<TRIPOS>ATOM
      1 O          62.3973   89.2903   10.4300 O.2     1  UNL1       -0.2701
      2 C          62.7555   88.6614   11.7438 C.2     1  UNL1        0.2461
      3 N          63.1365   89.5249   12.9096 N.am    1  UNL1       -0.2968
      4 H          63.3716   89.1121   13.7719 H       1  UNL1        0.1501
      5 C          62.7327   87.1688   11.8918 C.ar    1  UNL1        0.0534
      6 C          62.0413   86.3236   10.8635 C.ar    1  UNL1        0.0045
      7 C          62.0186   84.8312   11.0115 C.ar    1  UNL1        0.0001
      8 C          62.6872   84.1839   12.1880 C.ar    1  UNL1        0.0001
      9 C          63.3785   85.0291   13.2163 C.ar    1  UNL1        0.0001
     10 C          63.4013   86.5216   13.0683 C.ar    1  UNL1        0.0045
     11 C          62.6644   82.6913   12.3360 C.ar    1  UNL1        0.0031
     12 C          62.2551   82.0732   13.6399 C.ar    1  UNL1        0.0207
     13 C          62.2323   80.5807   13.7879 C.ar    1  UNL1        0.0989
     14 N          62.6189   79.7064   12.6320 N.ar    1  UNL1       -0.2423
     15 C          63.0282   80.3246   11.3280 C.ar    1  UNL1        0.0989
     16 C          63.0510   81.8171   11.1801 C.ar    1  UNL1        0.0207
     17 C          63.1593   91.0174   12.7616 C.3     1  UNL1        0.1197
     18 C          64.4240   91.7111   12.3504 C.ar    1  UNL1        0.0345
     19 C          64.7182   91.9347   10.8966 C.ar    1  UNL1        0.0006
     20 C          65.9830   92.6284   10.4854 C.ar    1  UNL1        0.0030
     21 C          66.9536   93.0985   11.5278 C.ar    1  UNL1        0.0400
     22 C          66.6595   92.8749   12.9817 C.ar    1  UNL1        0.1721
     23 C          65.3947   92.1812   13.3930 C.ar    1  UNL1        0.1700
     24 O          65.1006   91.9577   14.8467 O.3     1  UNL1       -0.4686
     25 C          66.0712   92.4278   15.8892 C.3     1  UNL1        0.2526
     26 C          67.3360   93.1214   15.4779 C.3     1  UNL1        0.2526
     27 O          67.6301   93.3450   14.0242 O.3     1  UNL1       -0.4684
@<TRIPOS>BOND
     1     1     2    2
     2     2     3   am
     3     3    17    1
     4    17    18    1
     5    18    19   ar
     6    19    20   ar
     7    20    21   ar
     8    21    22   ar
     9    22    23   ar
    10    23    24    1
    11    24    25    1
    12    25    26    1
    13    26    27    1
    14     2     5    1
    15     5     6   ar
    16     6     7   ar
    17     7     8   ar
    18     8    11    1
    19    11    12   ar
    20    12    13   ar
    21    13    14   ar
    22    14    15   ar
    23    15    16   ar
    24     8     9   ar
    25     9    10   ar
    26    23    18   ar
    27    10     5   ar
    28    27    22    1
    29    16    11   ar
    30     3     4    1
@<TRIPOS>MOLECULE
*****
 27 30 0 0 0
SMALL
GASTEIGER

@<TRIPOS>ATOM
      1 O          63.1973   88.9637   13.8736 O.2     1  UNL1       -0.2701
      2 C          63.2457   89.3166   12.4165 C.2     1  UNL1        0.2461
      3 N          62.6051   88.4137   11.4044 N.am    1  UNL1       -0.2968
      4 H          62.6369   88.6453   10.4481 H       1  UNL1        0.1501
      5 C          63.9348   90.5725   11.9715 C.ar    1  UNL1        0.0534
      6 C          64.8978   91.2653   12.8895 C.ar    1  UNL1        0.0045
      7 C          65.5868   92.5211   12.4444 C.ar    1  UNL1        0.0001
      8 C          65.3128   93.0842   11.0814 C.ar    1  UNL1        0.0001
      9 C          64.3498   92.3914   10.1634 C.ar    1  UNL1        0.0001
     10 C          63.6608   91.1356   10.6084 C.ar    1  UNL1        0.0045
     11 C          66.0019   94.3401   10.6363 C.ar    1  UNL1        0.0031
     12 C          65.8550   95.6001   11.4367 C.ar    1  UNL1        0.0207
     13 C          66.5440   96.8559   10.9917 C.ar    1  UNL1        0.0989
     14 N          67.3800   96.8517    9.7462 N.ar    1  UNL1       -0.2423
     15 C          67.5270   95.5916    8.9459 C.ar    1  UNL1        0.0989
     16 C          66.8379   94.3358    9.3909 C.ar    1  UNL1        0.0207
     17 C          61.9161   87.1579   11.8494 C.3     1  UNL1        0.1197
     18 C          62.5408   85.8220   11.5750 C.ar    1  UNL1        0.0345
     19 C          62.6694   85.3299   10.1639 C.ar    1  UNL1        0.0006
     20 C          63.2941   83.9940    9.8895 C.ar    1  UNL1        0.0030
     21 C          63.7903   83.1504   11.0262 C.ar    1  UNL1        0.0400
     22 C          63.6617   83.6426   12.4373 C.ar    1  UNL1        0.1721
     23 C          63.0370   84.9784   12.7117 C.ar    1  UNL1        0.1700
     24 O          62.9084   85.4705   14.1228 O.3     1  UNL1       -0.4686
     25 C          63.4045   84.6269   15.2595 C.3     1  UNL1        0.2526
     26 C          64.0292   83.2911   14.9851 C.3     1  UNL1        0.2526
     27 O          64.1578   82.7989   13.5740 O.3     1  UNL1       -0.4684
@<TRIPOS>BOND
     1     1     2    2
     2     2     3   am
     3     3    17    1
     4    17    18    1
     5    18    19   ar
     6    19    20   ar
     7    20    21   ar
     8    21    22   ar
     9    22    23   ar
    10    23    24    1
    11    24    25    1
    12    25    26    1
    13    26    27    1
    14     2     5    1
    15     5     6   ar
    16     6     7   ar
    17     7     8   ar
    18     8    11    1
    19    11    12   ar
    20    12    13   ar
    21    13    14   ar
    22    14    15   ar
    23    15    16   ar
    24     8     9   ar
    25     9    10   ar
    26    23    18   ar
    27    10     5   ar
    28    27    22    1
    29    16    11   ar
    30     3     4    1
@<TRIPOS>MOLECULE
*****
 27 30 0 0 0
SMALL
GASTEIGER

@<TRIPOS>ATOM
      1 O          61.6874   90.1534    9.8153 O.2     1  UNL1       -0.2701
      2 C          61.9602   89.6762   11.2110 C.2     1  UNL1        0.2461
      3 N          61.0772   88.6360   11.8340 N.am    1  UNL1       -0.2968
      4 H          61.2562   88.3228   12.7500 H       1  UNL1        0.1501
      5 C          63.1161   90.2392   11.9837 C.ar    1  UNL1        0.0534
      6 C          63.8744   91.4169   11.4471 C.ar    1  UNL1        0.0045
      7 C          65.0302   91.9799   12.2197 C.ar    1  UNL1        0.0001
      8 C          65.4277   91.3652   13.5290 C.ar    1  UNL1        0.0001
      9 C          64.6694   90.1875   14.0656 C.ar    1  UNL1        0.0001
     10 C          63.5136   89.6246   13.2929 C.ar    1  UNL1        0.0045
     11 C          66.5836   91.9283   14.3017 C.ar    1  UNL1        0.0031
     12 C          67.9574   91.9325   13.6995 C.ar    1  UNL1        0.0207
     13 C          69.1132   92.4956   14.4722 C.ar    1  UNL1        0.0989
     14 N          68.8952   93.0543   15.8470 N.ar    1  UNL1       -0.2423
     15 C          67.5215   93.0500   16.4492 C.ar    1  UNL1        0.0989
     16 C          66.3657   92.4870   15.6766 C.ar    1  UNL1        0.0207
     17 C          59.9213   88.0729   11.0614 C.3     1  UNL1        0.1197
     18 C          60.1680   87.2983    9.8008 C.ar    1  UNL1        0.0345
     19 C          59.3312   87.5601    8.5837 C.ar    1  UNL1        0.0006
     20 C          59.5779   86.7854    7.3232 C.ar    1  UNL1        0.0030
     21 C          60.6613   85.7490    7.2796 C.ar    1  UNL1        0.0400
     22 C          61.4981   85.4871    8.4968 C.ar    1  UNL1        0.1721
     23 C          61.2514   86.2617    9.7573 C.ar    1  UNL1        0.1700
     24 O          62.0881   85.9999   10.9744 O.3     1  UNL1       -0.4686
     25 C          63.1715   84.9634   10.9309 C.3     1  UNL1        0.2526
     26 C          63.4182   84.1888    9.6703 C.3     1  UNL1        0.2526
     27 O          62.5815   84.4506    8.4532 O.3     1  UNL1       -0.4684
@<TRIPOS>BOND
     1     1     2    2
     2     2     3   am
     3     3    17    1
     4    17    18    1
     5    18    19   ar
     6    19    20   ar
     7    20    21   ar
     8    21    22   ar
     9    22    23   ar
    10    23    24    1
    11    24    25    1
    12    25    26    1
    13    26    27    1
    14     2     5    1
    15     5     6   ar
    16     6     7   ar
    17     7     8   ar
    18     8    11    1
    19    11    12   ar
    20    12    13   ar
    21    13    14   ar
    22    14    15   ar
    23    15    16   ar
    24     8     9   ar
    25     9    10   ar
    26    23    18   ar
    27    10     5   ar
    28    27    22    1
    29    16    11   ar
    30     3     4    1
@<TRIPOS>MOLECULE
*****
 27 30 0 0 0
SMALL
GASTEIGER

@<TRIPOS>ATOM
      1 O          58.0272   91.6156    5.2334 O.2     1  UNL1       -0.2701
      2 C          59.4542   91.1797    5.0795 C.2     1  UNL1        0.2461
      3 N          60.0084   90.1014    5.9627 N.am    1  UNL1       -0.2968
      4 H          60.9450   89.8153    5.8617 H       1  UNL1        0.1501
      5 C          60.3269   91.8220    4.0423 C.ar    1  UNL1        0.0534
      6 C          61.7633   91.4102    3.9112 C.ar    1  UNL1        0.0045
      7 C          62.6360   92.0525    2.8740 C.ar    1  UNL1        0.0001
      8 C          62.0723   93.1066    1.9679 C.ar    1  UNL1        0.0001
      9 C          60.6359   93.5184    2.0989 C.ar    1  UNL1        0.0001
     10 C          59.7633   92.8761    3.1361 C.ar    1  UNL1        0.0045
     11 C          62.9451   93.7490    0.9307 C.ar    1  UNL1        0.0031
     12 C          62.5823   93.6487   -0.5213 C.ar    1  UNL1        0.0207
     13 C          63.4550   94.2910   -1.5585 C.ar    1  UNL1        0.0989
     14 N          64.6906   95.0336   -1.1436 N.ar    1  UNL1       -0.2423
     15 C          65.0533   95.1338    0.3084 C.ar    1  UNL1        0.0989
     16 C          64.1806   94.4915    1.3455 C.ar    1  UNL1        0.0207
     17 C          59.1358   89.4591    6.9999 C.3     1  UNL1        0.1197
     18 C          59.7041   88.4177    7.9178 C.ar    1  UNL1        0.0345
     19 C          59.7921   86.9893    7.4685 C.ar    1  UNL1        0.0006
     20 C          60.3604   85.9480    8.3864 C.ar    1  UNL1        0.0030
     21 C          60.8407   86.3350    9.7537 C.ar    1  UNL1        0.0400
     22 C          60.7527   87.7634   10.2031 C.ar    1  UNL1        0.1721
     23 C          60.1844   88.8048    9.2852 C.ar    1  UNL1        0.1700
     24 O          60.0963   90.2332    9.7346 O.3     1  UNL1       -0.4686
     25 C          60.5766   90.6202   11.1018 C.3     1  UNL1        0.2526
     26 C          61.1449   89.5788   12.0198 C.3     1  UNL1        0.2526
     27 O          61.2329   88.1504   11.5704 O.3     1  UNL1       -0.4684
@<TRIPOS>BOND
     1     1     2    2
     2     2     3   am
     3     3    17    1
     4    17    18    1
     5    18    19   ar
     6    19    20   ar
     7    20    21   ar
     8    21    22   ar
     9    22    23   ar
    10    23    24    1
    11    24    25    1
    12    25    26    1
    13    26    27    1
    14     2     5    1
    15     5     6   ar
    16     6     7   ar
    17     7     8   ar
    18     8    11    1
    19    11    12   ar
    20    12    13   ar
    21    13    14   ar
    22    14    15   ar
    23    15    16   ar
    24     8     9   ar
    25     9    10   ar
    26    23    18   ar
    27    10     5   ar
    28    27    22    1
    29    16    11   ar
    30     3     4    1
@<TRIPOS>MOLECULE
*****
 27 30 0 0 0
SMALL
GASTEIGER

@<TRIPOS>ATOM
      1 O          61.8023   89.9497   13.9551 O.2     1  UNL1       -0.2701
      2 C          62.9387   89.3792   13.1594 C.2     1  UNL1        0.2461
      3 N          64.3548   89.6609   13.5659 N.am    1  UNL1       -0.2968
      4 H          65.1006   89.2865   13.0436 H       1  UNL1        0.1501
      5 C          62.6589   88.5269   11.9571 C.ar    1  UNL1        0.0534
      6 C          62.7150   87.0321   12.0680 C.ar    1  UNL1        0.0045
      7 C          62.4353   86.1798   10.8658 C.ar    1  UNL1        0.0001
      8 C          62.0994   86.8224    9.5527 C.ar    1  UNL1        0.0001
      9 C          62.0433   88.3172    9.4418 C.ar    1  UNL1        0.0001
     10 C          62.3231   89.1694   10.6440 C.ar    1  UNL1        0.0045
     11 C          61.8197   85.9701    8.3504 C.ar    1  UNL1        0.0031
     12 C          60.4419   85.9376    7.7583 C.ar    1  UNL1        0.0207
     13 C          60.1622   85.0853    6.5561 C.ar    1  UNL1        0.0989
     14 N          61.2603   84.2655    5.9460 N.ar    1  UNL1       -0.2423
     15 C          62.6381   84.2980    6.5381 C.ar    1  UNL1        0.0989
     16 C          62.9177   85.1503    7.7403 C.ar    1  UNL1        0.0207
     17 C          64.6346   90.5132   14.7681 C.3     1  UNL1        0.1197
     18 C          65.5771   91.6751   14.6608 C.ar    1  UNL1        0.0345
     19 C          66.3611   92.1182   15.8603 C.ar    1  UNL1        0.0006
     20 C          67.3036   93.2801   15.7530 C.ar    1  UNL1        0.0030
     21 C          67.4622   93.9990   14.4462 C.ar    1  UNL1        0.0400
     22 C          66.6781   93.5560   13.2465 C.ar    1  UNL1        0.1721
     23 C          65.7356   92.3941   13.3538 C.ar    1  UNL1        0.1700
     24 O          64.9516   91.9510   12.1542 O.3     1  UNL1       -0.4686
     25 C          65.1102   92.6699   10.8473 C.3     1  UNL1        0.2526
     26 C          66.0527   93.8319   10.7400 C.3     1  UNL1        0.2526
     27 O          66.8367   94.2749   11.9396 O.3     1  UNL1       -0.4684
@<TRIPOS>BOND
     1     1     2    2
     2     2     3   am
     3     3    17    1
     4    17    18    1
     5    18    19   ar
     6    19    20   ar
     7    20    21   ar
     8    21    22   ar
     9    22    23   ar
    10    23    24    1
    11    24    25    1
    12    25    26    1
    13    26    27    1
    14     2     5    1
    15     5     6   ar
    16     6     7   ar
    17     7     8   ar
    18     8    11    1
    19    11    12   ar
    20    12    13   ar
    21    13    14   ar
    22    14    15   ar
    23    15    16   ar
    24     8     9   ar
    25     9    10   ar
    26    23    18   ar
    27    10     5   ar
    28    27    22    1
    29    16    11   ar
    30     3     4    1
@<TRIPOS>MOLECULE
*****
 27 30 0 0 0
SMALL
GASTEIGER

@<TRIPOS>ATOM
      1 O          63.5988   87.2817   15.2631 O.2     1  UNL1       -0.2701
      2 C          63.6481   87.6608   13.8127 C.2     1  UNL1        0.2461
      3 N          63.2466   86.6667   12.7636 N.am    1  UNL1       -0.2968
      4 H          63.2789   86.9156   11.8116 H       1  UNL1        0.1501
      5 C          64.0990   89.0340   13.4113 C.ar    1  UNL1        0.0534
      6 C          65.0981   89.7712   14.2528 C.ar    1  UNL1        0.0045
      7 C          65.5489   91.1443   13.8514 C.ar    1  UNL1        0.0001
      8 C          65.0006   91.7803   12.6085 C.ar    1  UNL1        0.0001
      9 C          64.0014   91.0432   11.7670 C.ar    1  UNL1        0.0001
     10 C          63.5506   89.6700   12.1684 C.ar    1  UNL1        0.0045
     11 C          65.4514   93.1536   12.2072 C.ar    1  UNL1        0.0031
     12 C          66.1406   94.0378   13.2037 C.ar    1  UNL1        0.0207
     13 C          66.5914   95.4110   12.8023 C.ar    1  UNL1        0.0989
     14 N          66.3530   95.8999   11.4044 N.ar    1  UNL1       -0.2423
     15 C          65.6639   95.0156   10.4079 C.ar    1  UNL1        0.0989
     16 C          65.2130   93.6425   10.8093 C.ar    1  UNL1        0.0207
     17 C          62.7957   85.2936   13.1649 C.3     1  UNL1        0.1197
     18 C          63.0806   84.1205   12.2744 C.ar    1  UNL1        0.0345
     19 C          63.7541   84.3299   10.9507 C.ar    1  UNL1        0.0006
     20 C          64.0389   83.1569   10.0602 C.ar    1  UNL1        0.0030
     21 C          63.6502   81.7745   10.4935 C.ar    1  UNL1        0.0400
     22 C          62.9766   81.5651   11.8174 C.ar    1  UNL1        0.1721
     23 C          62.6918   82.7381   12.7078 C.ar    1  UNL1        0.1700
     24 O          62.0183   82.5287   14.0316 O.3     1  UNL1       -0.4686
     25 C          61.6296   81.1463   14.4650 C.3     1  UNL1        0.2526
     26 C          61.9144   79.9733   13.5745 C.3     1  UNL1        0.2526
     27 O          62.5879   80.1827   12.2507 O.3     1  UNL1       -0.4684
@<TRIPOS>BOND
     1     1     2    2
     2     2     3   am
     3     3    17    1
     4    17    18    1
     5    18    19   ar
     6    19    20   ar
     7    20    21   ar
     8    21    22   ar
     9    22    23   ar
    10    23    24    1
    11    24    25    1
    12    25    26    1
    13    26    27    1
    14     2     5    1
    15     5     6   ar
    16     6     7   ar
    17     7     8   ar
    18     8    11    1
    19    11    12   ar
    20    12    13   ar
    21    13    14   ar
    22    14    15   ar
    23    15    16   ar
    24     8     9   ar
    25     9    10   ar
    26    23    18   ar
    27    10     5   ar
    28    27    22    1
    29    16    11   ar
    30     3     4    1
@<TRIPOS>MOLECULE
*****
 27 30 0 0 0
SMALL
GASTEIGER

@<TRIPOS>ATOM
      1 O          63.2942   87.9715   16.1993 O.2     1  UNL1       -0.2701
      2 C          63.8008   87.9355   14.7879 C.2     1  UNL1        0.2461
      3 N          63.8755   86.6312   14.0509 N.am    1  UNL1       -0.2968
      4 H          64.2080   86.6076   13.1245 H       1  UNL1        0.1501
      5 C          64.2327   89.2039   14.1135 C.ar    1  UNL1        0.0534
      6 C          65.3238   90.0392   14.7149 C.ar    1  UNL1        0.0045
      7 C          65.7557   91.3074   14.0405 C.ar    1  UNL1        0.0001
      8 C          65.0964   91.7405   12.7646 C.ar    1  UNL1        0.0001
      9 C          64.0053   90.9052   12.1631 C.ar    1  UNL1        0.0001
     10 C          63.5735   89.6369   12.8376 C.ar    1  UNL1        0.0045
     11 C          65.5283   93.0088   12.0901 C.ar    1  UNL1        0.0031
     12 C          66.1274   94.1215   12.8982 C.ar    1  UNL1        0.0207
     13 C          66.5592   95.3898   12.2237 C.ar    1  UNL1        0.0989
     14 N          66.3920   95.5454   10.7412 N.ar    1  UNL1       -0.2423
     15 C          65.7929   94.4327    9.9332 C.ar    1  UNL1        0.0989
     16 C          65.3610   93.1644   10.6076 C.ar    1  UNL1        0.0207
     17 C          63.4437   85.3629   14.7253 C.3     1  UNL1        0.1197
     18 C          63.4992   84.0615   13.9814 C.ar    1  UNL1        0.0345
     19 C          63.7079   82.7783   14.7297 C.ar    1  UNL1        0.0006
     20 C          63.7634   81.4769   13.9858 C.ar    1  UNL1        0.0030
     21 C          63.6104   81.4587   12.4938 C.ar    1  UNL1        0.0400
     22 C          63.4017   82.7419   11.7455 C.ar    1  UNL1        0.1721
     23 C          63.3462   84.0433   12.4893 C.ar    1  UNL1        0.1700
     24 O          63.1375   85.3265   11.7411 O.3     1  UNL1       -0.4686
     25 C          62.9844   85.3083   10.2491 C.3     1  UNL1        0.2526
     26 C          63.0400   84.0069    9.5053 C.3     1  UNL1        0.2526
     27 O          63.2486   82.7237   10.2535 O.3     1  UNL1       -0.4684
@<TRIPOS>BOND
     1     1     2    2
     2     2     3   am
     3     3    17    1
     4    17    18    1
     5    18    19   ar
     6    19    20   ar
     7    20    21   ar
     8    21    22   ar
     9    22    23   ar
    10    23    24    1
    11    24    25    1
    12    25    26    1
    13    26    27    1
    14     2     5    1
    15     5     6   ar
    16     6     7   ar
    17     7     8   ar
    18     8    11    1
    19    11    12   ar
    20    12    13   ar
    21    13    14   ar
    22    14    15   ar
    23    15    16   ar
    24     8     9   ar
    25     9    10   ar
    26    23    18   ar
    27    10     5   ar
    28    27    22    1
    29    16    11   ar
    30     3     4    1
@<TRIPOS>MOLECULE
*****
 27 30 0 0 0
SMALL
GASTEIGER

@<TRIPOS>ATOM
      1 O          61.4981   89.5252   12.6134 O.2     1  UNL1       -0.2701
      2 C          62.6359   88.8064   11.9511 C.2     1  UNL1        0.2461
      3 N          63.7421   89.5871   11.3056 N.am    1  UNL1       -0.2968
      4 H          64.4889   89.1153   10.8709 H       1  UNL1        0.1501
      5 C          62.6675   87.3068   11.9344 C.ar    1  UNL1        0.0534
      6 C          63.2695   86.5564   13.0852 C.ar    1  UNL1        0.0045
      7 C          63.3011   85.0568   13.0684 C.ar    1  UNL1        0.0001
      8 C          62.7306   84.3077   11.9008 C.ar    1  UNL1        0.0001
      9 C          62.1285   85.0581   10.7500 C.ar    1  UNL1        0.0001
     10 C          62.0969   86.5576   10.7668 C.ar    1  UNL1        0.0045
     11 C          62.7622   82.8081   11.8840 C.ar    1  UNL1        0.0031
     12 C          63.0907   82.0790   10.6150 C.ar    1  UNL1        0.0207
     13 C          63.1223   80.5794   10.5983 C.ar    1  UNL1        0.0989
     14 N          62.8253   79.8090   11.8506 N.ar    1  UNL1       -0.2423
     15 C          62.4968   80.5381   13.1196 C.ar    1  UNL1        0.0989
     16 C          62.4652   82.0376   13.1363 C.ar    1  UNL1        0.0207
     17 C          63.7105   91.0866   11.3223 C.3     1  UNL1        0.1197
     18 C          64.6465   91.8466   12.2147 C.ar    1  UNL1        0.0345
     19 C          64.8909   91.3776   13.6184 C.ar    1  UNL1        0.0006
     20 C          65.8268   92.1376   14.5108 C.ar    1  UNL1        0.0030
     21 C          66.5184   93.3665   13.9996 C.ar    1  UNL1        0.0400
     22 C          66.2740   93.8356   12.5959 C.ar    1  UNL1        0.1721
     23 C          65.3381   93.0756   11.7034 C.ar    1  UNL1        0.1700
     24 O          65.0937   93.5446   10.2998 O.3     1  UNL1       -0.4686
     25 C          65.7853   94.7735    9.7886 C.3     1  UNL1        0.2526
     26 C          66.7212   95.5335   10.6810 C.3     1  UNL1        0.2526
     27 O          66.9656   95.0645   12.0847 O.3     1  UNL1       -0.4684
@<TRIPOS>BOND
     1     1     2    2
     2     2     3   am
     3     3    17    1
     4    17    18    1
     5    18    19   ar
     6    19    20   ar
     7    20    21   ar
     8    21    22   ar
     9    22    23   ar
    10    23    24    1
    11    24    25    1
    12    25    26    1
    13    26    27    1
    14     2     5    1
    15     5     6   ar
    16     6     7   ar
    17     7     8   ar
    18     8    11    1
    19    11    12   ar
    20    12    13   ar
    21    13    14   ar
    22    14    15   ar
    23    15    16   ar
    24     8     9   ar
    25     9    10   ar
    26    23    18   ar
    27    10     5   ar
    28    27    22    1
    29    16    11   ar
    30     3     4    1
