@<TRIPOS>MOLECULE
*****
 12 13 0 0 0
SMALL
GASTEIGER

@<TRIPOS>ATOM
      1 CA         62.9047   84.3652   15.1427 C.ar    1  UNL1        0.0713
      2 C          63.0759   84.4075   13.6531 C.ar    1  UNL1        0.0260
      3 C          62.9378   83.0082   13.1307 C.ar    1  UNL1        0.0465
      4 S          62.9582   82.1695   11.8872 S.2     1  UNL1       -0.0849
      5 C          62.7144   80.7441   12.2855 C.ar    1  UNL1        0.0370
      6 C          62.5432   80.7017   13.7751 C.ar    1  UNL1        0.0244
      7 C          62.6813   82.1010   14.2975 C.ar    1  UNL1        0.0632
      8 N          62.6608   82.9397   15.5410 N.ar    1  UNL1       -0.3518
      9 H          62.5133   82.6121   16.4575 H       1  UNL1        0.1660
     10 O          62.2107   85.5155   17.3664 O.co2   1  UNL1       -0.5431
     11 C          62.9665   85.5417   16.0710 C.2     1  UNL1        0.0884
     12 OXT        63.7843   86.7446   15.7040 O.co2   1  UNL1       -0.5431
@<TRIPOS>UNITY_ATOM_ATTR
10 1
charge -1
@<TRIPOS>BOND
     1    10    11   ar
     2    11    12   ar
     3    11     1    1
     4     1     2   ar
     5     2     3   ar
     6     3     4   ar
     7     4     5   ar
     8     5     6   ar
     9     6     7   ar
    10     7     8   ar
    11     8     1   ar
    12     7     3   ar
    13     8     9    1
@<TRIPOS>MOLECULE
*****
 12 13 0 0 0
SMALL
GASTEIGER

@<TRIPOS>ATOM
      1 CA         66.1585   93.2774   11.9757 C.ar    1  UNL1        0.0713
      2 C          66.7135   92.9591   10.6189 C.ar    1  UNL1        0.0260
      3 C          66.9517   94.2539    9.9000 C.ar    1  UNL1        0.0465
      4 S          67.4420   94.8573    8.6173 S.2     1  UNL1       -0.0849
      5 C          67.3372   96.3488    8.7369 C.ar    1  UNL1        0.0370
      6 C          66.7822   96.6672   10.0936 C.ar    1  UNL1        0.0244
      7 C          66.5439   95.3725   10.8125 C.ar    1  UNL1        0.0632
      8 N          66.0537   94.7691   12.0952 N.ar    1  UNL1       -0.3518
      9 H          65.7215   95.2649   12.8782 H       1  UNL1        0.1660
     10 O          66.8393   91.5833   13.8239 O.co2   1  UNL1       -0.5431
     11 C          65.7755   92.2796   13.0280 C.2     1  UNL1        0.0884
     12 OXT        64.3286   91.9778   13.2844 O.co2   1  UNL1       -0.5431
@<TRIPOS>UNITY_ATOM_ATTR
10 1
charge -1
@<TRIPOS>BOND
     1    10    11   ar
     2    11    12   ar
     3    11     1    1
     4     1     2   ar
     5     2     3   ar
     6     3     4   ar
     7     4     5   ar
     8     5     6   ar
     9     6     7   ar
    10     7     8   ar
    11     8     1   ar
    12     7     3   ar
    13     8     9    1
@<TRIPOS>MOLECULE
*****
 12 13 0 0 0
SMALL
GASTEIGER

@<TRIPOS>ATOM
      1 CA         64.1254   90.7816   14.4208 C.ar    1  UNL1        0.0713
      2 C          65.4335   91.5052   14.2963 C.ar    1  UNL1        0.0260
      3 C          65.5478   92.0179   12.8913 C.ar    1  UNL1        0.0465
      4 S          66.4268   92.7819   11.9460 S.2     1  UNL1       -0.0849
      5 C          65.7327   92.8473   10.6179 C.ar    1  UNL1        0.0370
      6 C          64.4247   92.1237   10.7423 C.ar    1  UNL1        0.0244
      7 C          64.3104   91.6111   12.1474 C.ar    1  UNL1        0.0632
      8 N          63.4313   90.8471   13.0926 N.ar    1  UNL1       -0.3518
      9 H          62.5530   90.4571   12.8789 H       1  UNL1        0.1660
     10 O          63.4111   88.6230   15.6777 O.co2   1  UNL1       -0.5431
     11 C          63.6032   90.1105   15.6564 C.2     1  UNL1        0.0884
     12 OXT        63.2731   90.9268   16.8708 O.co2   1  UNL1       -0.5431
@<TRIPOS>UNITY_ATOM_ATTR
10 1
charge -1
@<TRIPOS>BOND
     1    10    11   ar
     2    11    12   ar
     3    11     1    1
     4     1     2   ar
     5     2     3   ar
     6     3     4   ar
     7     4     5   ar
     8     5     6   ar
     9     6     7   ar
    10     7     8   ar
    11     8     1   ar
    12     7     3   ar
    13     8     9    1
@<TRIPOS>MOLECULE
*****
 12 13 0 0 0
SMALL
GASTEIGER

@<TRIPOS>ATOM
      1 CA         66.6022   93.3049   10.9370 C.ar    1  UNL1        0.0713
      2 C          65.2564   92.6558   10.8040 C.ar    1  UNL1        0.0260
      3 C          64.9484   91.9582   12.0957 C.ar    1  UNL1        0.0465
      4 S          63.9263   91.1260   12.8117 S.2     1  UNL1       -0.0849
      5 C          64.4501   90.8295   14.1857 C.ar    1  UNL1        0.0370
      6 C          65.7959   91.4785   14.3188 C.ar    1  UNL1        0.0244
      7 C          66.1039   92.1761   13.0271 C.ar    1  UNL1        0.0632
      8 N          67.1260   93.0083   12.3110 N.ar    1  UNL1       -0.3518
      9 H          67.9890   93.3074   12.6783 H       1  UNL1        0.1660
     10 O          66.5469   95.1505    9.1093 O.co2   1  UNL1       -0.5431
     11 C          67.3014   94.1091    9.8815 C.2     1  UNL1        0.0884
     12 OXT        68.7552   93.8720    9.5980 O.co2   1  UNL1       -0.5431
@<TRIPOS>UNITY_ATOM_ATTR
10 1
charge -1
@<TRIPOS>BOND
     1    10    11   ar
     2    11    12   ar
     3    11     1    1
     4     1     2   ar
     5     2     3   ar
     6     3     4   ar
     7     4     5   ar
     8     5     6   ar
     9     6     7   ar
    10     7     8   ar
    11     8     1   ar
    12     7     3   ar
    13     8     9    1
@<TRIPOS>MOLECULE
*****
 12 13 0 0 0
SMALL
GASTEIGER

@<TRIPOS>ATOM
      1 CA         63.5318   84.6341   14.8611 C.ar    1  UNL1        0.0713
      2 C          62.5082   83.6497   15.3441 C.ar    1  UNL1        0.0260
      3 C          62.4771   82.5021   14.3786 C.ar    1  UNL1        0.0465
      4 S          61.8253   81.1844   14.0805 S.2     1  UNL1       -0.0849
      5 C          62.4267   80.6453   12.8165 C.ar    1  UNL1        0.0370
      6 C          63.4503   81.6297   12.3335 C.ar    1  UNL1        0.0244
      7 C          63.4814   82.7773   13.2990 C.ar    1  UNL1        0.0632
      8 N          64.1333   84.0949   13.5971 N.ar    1  UNL1       -0.3518
      9 H          64.8330   84.5295   13.0579 H       1  UNL1        0.1660
     10 O          64.7878   86.9081   14.8261 O.co2   1  UNL1       -0.5431
     11 C          63.8908   85.9301   15.5254 C.2     1  UNL1        0.0884
     12 OXT        63.3529   86.2483   16.8891 O.co2   1  UNL1       -0.5431
@<TRIPOS>UNITY_ATOM_ATTR
10 1
charge -1
@<TRIPOS>BOND
     1    10    11   ar
     2    11    12   ar
     3    11     1    1
     4     1     2   ar
     5     2     3   ar
     6     3     4   ar
     7     4     5   ar
     8     5     6   ar
     9     6     7   ar
    10     7     8   ar
    11     8     1   ar
    12     7     3   ar
    13     8     9    1
@<TRIPOS>MOLECULE
*****
 12 13 0 0 0
SMALL
GASTEIGER

@<TRIPOS>ATOM
      1 CA         65.4517   93.1818   11.4094 C.ar    1  UNL1        0.0713
      2 C          65.2137   92.3323   12.6227 C.ar    1  UNL1        0.0260
      3 C          64.2062   91.2811   12.2622 C.ar    1  UNL1        0.0465
      4 S          63.4365   90.1065   12.7893 S.2     1  UNL1       -0.0849
      5 C          62.5760   89.5803   11.6790 C.ar    1  UNL1        0.0370
      6 C          62.8140   90.4296   10.4657 C.ar    1  UNL1        0.0244
      7 C          63.8215   91.4808   10.8262 C.ar    1  UNL1        0.0632
      8 N          64.5912   92.6555   10.2991 N.ar    1  UNL1       -0.3518
      9 H          64.5405   93.0174    9.3850 H       1  UNL1        0.1660
     10 O          67.6049   94.2749   10.4511 O.co2   1  UNL1       -0.5431
     11 C          66.3859   94.3519   11.3219 C.2     1  UNL1        0.0884
     12 OXT        66.1014   95.5992   12.1051 O.co2   1  UNL1       -0.5431
@<TRIPOS>UNITY_ATOM_ATTR
10 1
charge -1
@<TRIPOS>BOND
     1    10    11   ar
     2    11    12   ar
     3    11     1    1
     4     1     2   ar
     5     2     3   ar
     6     3     4   ar
     7     4     5   ar
     8     5     6   ar
     9     6     7   ar
    10     7     8   ar
    11     8     1   ar
    12     7     3   ar
    13     8     9    1
@<TRIPOS>MOLECULE
*****
 12 13 0 0 0
SMALL
GASTEIGER

@<TRIPOS>ATOM
      1 CA         66.2679   92.3521   14.0525 C.ar    1  UNL1        0.0713
      2 C          65.1802   91.3338   14.2261 C.ar    1  UNL1        0.0260
      3 C          64.4350   91.2257   12.9289 C.ar    1  UNL1        0.0465
      4 S          63.3022   90.5295   12.2345 S.2     1  UNL1       -0.0849
      5 C          63.2292   91.0507   10.8299 C.ar    1  UNL1        0.0370
      6 C          64.3168   92.0690   10.6561 C.ar    1  UNL1        0.0244
      7 C          65.0621   92.1771   11.9534 C.ar    1  UNL1        0.0632
      8 N          66.1948   92.8733   12.6478 N.ar    1  UNL1       -0.3518
      9 H          66.7865   93.5530   12.2512 H       1  UNL1        0.1660
     10 O          66.8184   92.9202   16.5271 O.co2   1  UNL1       -0.5431
     11 C          67.2552   92.7749   15.0995 C.2     1  UNL1        0.0884
     12 OXT        68.6794   93.0525   14.7190 O.co2   1  UNL1       -0.5431
@<TRIPOS>UNITY_ATOM_ATTR
10 1
charge -1
@<TRIPOS>BOND
     1    10    11   ar
     2    11    12   ar
     3    11     1    1
     4     1     2   ar
     5     2     3   ar
     6     3     4   ar
     7     4     5   ar
     8     5     6   ar
     9     6     7   ar
    10     7     8   ar
    11     8     1   ar
    12     7     3   ar
    13     8     9    1
@<TRIPOS>MOLECULE
*****
 12 13 0 0 0
SMALL
GASTEIGER

@<TRIPOS>ATOM
      1 CA         63.3704   82.5405   12.8886 C.ar    1  UNL1        0.0713
      2 C          62.4526   82.7835   14.0500 C.ar    1  UNL1        0.0260
      3 C          62.9795   83.9585   14.8192 C.ar    1  UNL1        0.0465
      4 S          62.7379   84.8349   16.0124 S.2     1  UNL1       -0.0849
      5 C          63.8320   85.8597   16.0638 C.ar    1  UNL1        0.0370
      6 C          64.7498   85.6168   14.9025 C.ar    1  UNL1        0.0244
      7 C          64.2229   84.4418   14.1332 C.ar    1  UNL1        0.0632
      8 N          64.4645   83.5654   12.9401 N.ar    1  UNL1       -0.3518
      9 H          65.2102   83.6483   12.3027 H       1  UNL1        0.1660
     10 O          63.6021   81.7297   10.4312 O.co2   1  UNL1       -0.5431
     11 C          63.2204   81.4621   11.8569 C.2     1  UNL1        0.0884
     12 OXT        62.6886   80.1159   12.2509 O.co2   1  UNL1       -0.5431
@<TRIPOS>UNITY_ATOM_ATTR
10 1
charge -1
@<TRIPOS>BOND
     1    10    11   ar
     2    11    12   ar
     3    11     1    1
     4     1     2   ar
     5     2     3   ar
     6     3     4   ar
     7     4     5   ar
     8     5     6   ar
     9     6     7   ar
    10     7     8   ar
    11     8     1   ar
    12     7     3   ar
    13     8     9    1
@<TRIPOS>MOLECULE
*****
 12 13 0 0 0
SMALL
GASTEIGER

@<TRIPOS>ATOM
      1 CA         61.8833   89.3398   10.6191 C.ar    1  UNL1        0.0713
      2 C          61.8933   87.8527   10.4231 C.ar    1  UNL1        0.0260
      3 C          60.9320   87.5240    9.3195 C.ar    1  UNL1        0.0465
      4 S          60.3442   86.4019    8.5163 S.2     1  UNL1       -0.0849
      5 C          59.3768   86.9924    7.5337 C.ar    1  UNL1        0.0370
      6 C          59.3667   88.4795    7.7297 C.ar    1  UNL1        0.0244
      7 C          60.3279   88.8081    8.8333 C.ar    1  UNL1        0.0632
      8 N          60.9158   89.9303    9.6365 N.ar    1  UNL1       -0.3518
      9 H          60.7038   90.8865    9.5364 H       1  UNL1        0.1660
     10 O          62.5449   89.8158   13.0860 O.co2   1  UNL1       -0.5431
     11 C          62.6976   90.1025   11.6216 C.2     1  UNL1        0.0884
     12 OXT        63.6648   91.1519   11.1597 O.co2   1  UNL1       -0.5431
@<TRIPOS>UNITY_ATOM_ATTR
10 1
charge -1
@<TRIPOS>BOND
     1    10    11   ar
     2    11    12   ar
     3    11     1    1
     4     1     2   ar
     5     2     3   ar
     6     3     4   ar
     7     4     5   ar
     8     5     6   ar
     9     6     7   ar
    10     7     8   ar
    11     8     1   ar
    12     7     3   ar
    13     8     9    1
