@<TRIPOS>MOLECULE
*****
 30 33 0 0 0
SMALL
GASTEIGER

@<TRIPOS>ATOM
      1 C          62.3608   88.2141   11.5980 C.3     1  UNL1        0.0527
      2 C          63.1116   89.3971   12.1335 C.ar    1  UNL1        0.0688
      3 N          63.4286   90.6548   11.3800 N.ar    1  UNL1       -0.2282
      4 C          64.1902   91.5652   12.2973 C.ar    1  UNL1        0.1664
      5 S          64.3438   90.8701   13.6176 S.2     1  UNL1       -0.0502
      6 C          63.6772   89.5301   13.5163 C.ar    1  UNL1        0.0633
      7 N          64.7072   92.9309   11.9544 N.am    1  UNL1       -0.2483
      8 C          65.8629   93.0799   11.0098 C.2     1  UNL1        0.3094
      9 O          66.5015   91.8632   10.4080 O.2     1  UNL1       -0.2522
     10 N          66.3800   94.4456   10.6669 N.am    1  UNL1       -0.2572
     11 C          65.8459   95.7469   11.1876 C.3     1  UNL1        0.0955
     12 C          66.6577   96.8553   10.5856 C.3     1  UNL1        0.0238
     13 C          67.6936   96.2389    9.6929 C.3     1  UNL1        0.0310
     14 C          67.5219   94.7496    9.7431 C.3     1  UNL1        0.1528
     15 H          64.2881   93.7294   12.3493 H       1  UNL1        0.1583
     16 C          68.3473   93.7415    9.0000 C.2     1  UNL1        0.2375
     17 N          69.2820   92.8386    9.7491 N.am    1  UNL1       -0.3275
     18 O          68.2381   93.6362    7.5076 O.2     1  UNL1       -0.2736
     19 H          69.3537   92.9076   10.7285 H       1  UNL1        0.1450
     20 H          69.8237   92.1769    9.2613 H       1  UNL1        0.1450
     21 C          63.5914   88.5035   14.6066 C.ar    1  UNL1        0.0914
     22 C          63.2328   88.9198   16.0023 C.ar    1  UNL1        0.0404
     23 C          63.1469   87.8932   17.0925 C.ar    1  UNL1        0.1018
     24 N          63.4197   86.4502   16.7870 N.ar    1  UNL1       -0.2292
     25 C          63.7783   86.0338   15.3913 C.ar    1  UNL1        0.1383
     26 N          63.8642   87.0605   14.3011 N.ar    1  UNL1       -0.2302
     27 C          64.0511   84.5908   15.0858 C.3     1  UNL1        0.0524
     28 C          65.4731   84.6878   14.6184 C.3     1  UNL1        0.0075
     29 C          63.8300   83.1142   14.9427 C.3     1  UNL1        0.0075
     30 C          62.7238   83.9926   15.4472 C.3     1  UNL1        0.0075
@<TRIPOS>BOND
     1     1     2    1
     2     2     3   ar
     3     3     4   ar
     4     4     7    1
     5     7     8   am
     6     8     9    2
     7     8    10   am
     8    10    11    1
     9    11    12    1
    10    12    13    1
    11    13    14    1
    12    14    16    1
    13    16    17   am
    14    16    18    2
    15     4     5   ar
    16     5     6   ar
    17     6    21    1
    18    21    22   ar
    19    22    23   ar
    20    23    24   ar
    21    24    25   ar
    22    25    27    1
    23    27    28    1
    24    27    29    1
    25    29    30    1
    26    25    26   ar
    27     6     2   ar
    28    26    21   ar
    29    14    10    1
    30    30    27    1
    31     7    15    1
    32    17    19    1
    33    17    20    1
@<TRIPOS>MOLECULE
*****
 30 33 0 0 0
SMALL
GASTEIGER

@<TRIPOS>ATOM
      1 C          61.9050   90.6616   11.7771 C.3     1  UNL1        0.0527
      2 C          62.5147   89.3276   12.0913 C.ar    1  UNL1        0.0688
      3 N          62.3083   88.0595   11.3171 N.ar    1  UNL1       -0.2282
      4 C          63.1039   86.9757   11.9822 C.ar    1  UNL1        0.1664
      5 S          63.8020   87.5739   13.1674 S.2     1  UNL1       -0.0502
      6 C          63.4379   89.0275   13.2348 C.ar    1  UNL1        0.0633
      7 N          63.1869   85.5448   11.5397 N.am    1  UNL1       -0.2483
      8 C          62.7784   84.4456   12.4751 C.2     1  UNL1        0.3094
      9 O          62.2870   84.7773   13.8531 O.2     1  UNL1       -0.2522
     10 N          62.8613   83.0148   12.0327 N.am    1  UNL1       -0.2572
     11 C          63.3304   82.5323   10.6921 C.3     1  UNL1        0.0955
     12 C          63.2487   81.0345   10.6840 C.3     1  UNL1        0.0238
     13 C          62.7292   80.5914   12.0196 C.3     1  UNL1        0.0310
     14 C          62.4897   81.8153   12.8531 C.3     1  UNL1        0.1528
     15 H          63.5094   85.3271   10.6354 H       1  UNL1        0.1583
     16 C          61.9700   81.8360   14.2600 C.2     1  UNL1        0.2375
     17 N          62.7797   82.4745   15.3494 N.am    1  UNL1       -0.3275
     18 O          60.6405   81.2181   14.5776 O.2     1  UNL1       -0.2736
     19 H          63.6522   82.8800   15.1410 H       1  UNL1        0.1450
     20 H          62.4385   82.4880   16.2728 H       1  UNL1        0.1450
     21 C          63.9134   90.0087   14.2650 C.ar    1  UNL1        0.0914
     22 C          63.1454   90.1879   15.5409 C.ar    1  UNL1        0.0404
     23 C          63.6210   91.1691   16.5710 C.ar    1  UNL1        0.1018
     24 N          64.8645   91.9710   16.3252 N.ar    1  UNL1       -0.2292
     25 C          65.6326   91.7918   15.0493 C.ar    1  UNL1        0.1383
     26 N          65.1570   90.8106   14.0192 N.ar    1  UNL1       -0.2302
     27 C          66.8761   92.5937   14.8035 C.3     1  UNL1        0.0524
     28 C          66.3966   93.4854   13.6967 C.3     1  UNL1        0.0075
     29 C          68.2862   93.0860   14.9420 C.3     1  UNL1        0.0075
     30 C          67.7876   91.9805   15.8248 C.3     1  UNL1        0.0075
@<TRIPOS>BOND
     1     1     2    1
     2     2     3   ar
     3     3     4   ar
     4     4     7    1
     5     7     8   am
     6     8     9    2
     7     8    10   am
     8    10    11    1
     9    11    12    1
    10    12    13    1
    11    13    14    1
    12    14    16    1
    13    16    17   am
    14    16    18    2
    15     4     5   ar
    16     5     6   ar
    17     6    21    1
    18    21    22   ar
    19    22    23   ar
    20    23    24   ar
    21    24    25   ar
    22    25    27    1
    23    27    28    1
    24    27    29    1
    25    29    30    1
    26    25    26   ar
    27     6     2   ar
    28    26    21   ar
    29    14    10    1
    30    30    27    1
    31     7    15    1
    32    17    19    1
    33    17    20    1
@<TRIPOS>MOLECULE
*****
 30 33 0 0 0
SMALL
GASTEIGER

@<TRIPOS>ATOM
      1 C          58.6831   89.2016   11.8386 C.3     1  UNL1        0.0527
      2 C          60.1825   89.1962   11.8814 C.ar    1  UNL1        0.0688
      3 N          61.0378   89.8854   12.9029 N.ar    1  UNL1       -0.2282
      4 C          62.4738   89.6159   12.5631 C.ar    1  UNL1        0.1664
      5 S          62.5059   88.7602   11.3315 S.2     1  UNL1       -0.0502
      6 C          61.0898   88.5009   10.9102 C.ar    1  UNL1        0.0633
      7 N          63.6679   90.1146   13.3217 N.am    1  UNL1       -0.2483
      8 C          64.5477   91.1724   12.7243 C.2     1  UNL1        0.3094
      9 O          64.2334   91.7317   11.3683 O.2     1  UNL1       -0.2522
     10 N          65.7418   91.6711   13.4828 N.am    1  UNL1       -0.2572
     11 C          66.1795   91.2089   14.8410 C.3     1  UNL1        0.0955
     12 C          67.4161   91.9716   15.2140 C.3     1  UNL1        0.0238
     13 C          67.7426   92.9052   14.0863 C.3     1  UNL1        0.0310
     14 C          66.7078   92.7195   13.0163 C.3     1  UNL1        0.1528
     15 H          63.8742   89.7475   14.2116 H       1  UNL1        0.1583
     16 C          66.6494   93.4533   11.7095 C.2     1  UNL1        0.2375
     17 N          65.6555   94.5598   11.5143 N.am    1  UNL1       -0.3275
     18 O          67.5848   93.0808   10.5976 O.2     1  UNL1       -0.2736
     19 H          65.0415   94.8043   12.2440 H       1  UNL1        0.1450
     20 H          65.6172   95.0414   10.6565 H       1  UNL1        0.1450
     21 C          60.6570   87.6887    9.7256 C.ar    1  UNL1        0.0914
     22 C          59.2545   87.8069    9.2072 C.ar    1  UNL1        0.0404
     23 C          58.8218   86.9947    8.0227 C.ar    1  UNL1        0.1018
     24 N          59.7917   86.0644    7.3566 N.ar    1  UNL1       -0.2292
     25 C          61.1943   85.9461    7.8750 C.ar    1  UNL1        0.1383
     26 N          61.6269   86.7583    9.0595 N.ar    1  UNL1       -0.2302
     27 C          62.1641   85.0157    7.2089 C.3     1  UNL1        0.0524
     28 C          63.2724   85.0275    8.2196 C.3     1  UNL1        0.0075
     29 C          62.7491   84.0813    6.1918 C.3     1  UNL1        0.0075
     30 C          61.3927   84.6809    5.9668 C.3     1  UNL1        0.0075
@<TRIPOS>BOND
     1     1     2    1
     2     2     3   ar
     3     3     4   ar
     4     4     7    1
     5     7     8   am
     6     8     9    2
     7     8    10   am
     8    10    11    1
     9    11    12    1
    10    12    13    1
    11    13    14    1
    12    14    16    1
    13    16    17   am
    14    16    18    2
    15     4     5   ar
    16     5     6   ar
    17     6    21    1
    18    21    22   ar
    19    22    23   ar
    20    23    24   ar
    21    24    25   ar
    22    25    27    1
    23    27    28    1
    24    27    29    1
    25    29    30    1
    26    25    26   ar
    27     6     2   ar
    28    26    21   ar
    29    14    10    1
    30    30    27    1
    31     7    15    1
    32    17    19    1
    33    17    20    1
@<TRIPOS>MOLECULE
*****
 30 33 0 0 0
SMALL
GASTEIGER

@<TRIPOS>ATOM
      1 C          61.9856   89.7598   10.1515 C.3     1  UNL1        0.0527
      2 C          62.4243   88.8061   11.2229 C.ar    1  UNL1        0.0688
      3 N          61.9405   87.3975   11.4015 N.ar    1  UNL1       -0.2282
      4 C          62.6411   86.8143   12.5928 C.ar    1  UNL1        0.1664
      5 S          63.5578   87.8624   13.1504 S.2     1  UNL1       -0.0502
      6 C          63.4239   89.0934   12.3038 C.ar    1  UNL1        0.0633
      7 N          62.4572   85.4266   13.1318 N.am    1  UNL1       -0.2483
      8 C          62.7928   84.2398   12.2781 C.2     1  UNL1        0.3094
      9 O          63.3125   84.4407   10.8853 O.2     1  UNL1       -0.2522
     10 N          62.6089   82.8522   12.8171 N.am    1  UNL1       -0.2572
     11 C          62.1013   82.4970   14.1831 C.3     1  UNL1        0.0955
     12 C          62.0790   81.0014   14.2950 C.3     1  UNL1        0.0238
     13 C          62.5728   80.4322   12.9980 C.3     1  UNL1        0.0310
     14 C          62.9003   81.5761   12.0846 C.3     1  UNL1        0.1528
     15 H          62.1161   85.2948   14.0459 H       1  UNL1        0.1583
     16 C          63.4268   81.4635   10.6846 C.2     1  UNL1        0.2375
     17 N          64.5166   82.3819   10.2170 N.am    1  UNL1       -0.3275
     18 O          62.8634   80.4324    9.7521 O.2     1  UNL1       -0.2736
     19 H          64.8864   83.0586   10.8289 H       1  UNL1        0.1450
     20 H          64.8621   82.3079    9.2980 H       1  UNL1        0.1450
     21 C          64.1602   90.3850   12.5031 C.ar    1  UNL1        0.0914
     22 C          64.1360   91.4351   11.4323 C.ar    1  UNL1        0.0404
     23 C          64.8724   92.7266   11.6317 C.ar    1  UNL1        0.1018
     24 N          65.6329   92.9680   12.9018 N.ar    1  UNL1       -0.2292
     25 C          65.6571   91.9179   13.9726 C.ar    1  UNL1        0.1383
     26 N          64.9208   90.6264   13.7733 N.ar    1  UNL1       -0.2302
     27 C          66.4177   92.1593   15.2428 C.3     1  UNL1        0.0524
     28 C          65.2767   92.3200   16.2031 C.3     1  UNL1        0.0075
     29 C          67.5745   92.3450   16.1794 C.3     1  UNL1        0.0075
     30 C          67.8229   92.0825   14.7236 C.3     1  UNL1        0.0075
@<TRIPOS>BOND
     1     1     2    1
     2     2     3   ar
     3     3     4   ar
     4     4     7    1
     5     7     8   am
     6     8     9    2
     7     8    10   am
     8    10    11    1
     9    11    12    1
    10    12    13    1
    11    13    14    1
    12    14    16    1
    13    16    17   am
    14    16    18    2
    15     4     5   ar
    16     5     6   ar
    17     6    21    1
    18    21    22   ar
    19    22    23   ar
    20    23    24   ar
    21    24    25   ar
    22    25    27    1
    23    27    28    1
    24    27    29    1
    25    29    30    1
    26    25    26   ar
    27     6     2   ar
    28    26    21   ar
    29    14    10    1
    30    30    27    1
    31     7    15    1
    32    17    19    1
    33    17    20    1
@<TRIPOS>MOLECULE
*****
 30 33 0 0 0
SMALL
GASTEIGER

@<TRIPOS>ATOM
      1 C          62.6226   90.1546   10.7629 C.3     1  UNL1        0.0527
      2 C          62.9688   89.1396   11.8117 C.ar    1  UNL1        0.0688
      3 N          62.4533   87.7327   11.8813 N.ar    1  UNL1       -0.2282
      4 C          63.0572   87.0769   13.0877 C.ar    1  UNL1        0.1664
      5 S          63.9459   88.0784   13.7636 S.2     1  UNL1       -0.0502
      6 C          63.8914   89.3533   12.9750 C.ar    1  UNL1        0.0633
      7 N          62.8148   85.6670   13.5388 N.am    1  UNL1       -0.2483
      8 C          63.0748   84.5246   12.6021 C.2     1  UNL1        0.3094
      9 O          63.5772   84.7921   11.2142 O.2     1  UNL1       -0.2522
     10 N          62.8325   83.1148   13.0533 N.am    1  UNL1       -0.2572
     11 C          62.3340   82.6947   14.4042 C.3     1  UNL1        0.0955
     12 C          62.2395   81.1978   14.4185 C.3     1  UNL1        0.0238
     13 C          62.6796   80.6927   13.0765 C.3     1  UNL1        0.0310
     14 C          63.0461   81.8775   12.2327 C.3     1  UNL1        0.1528
     15 H          62.4851   85.4914   14.4497 H       1  UNL1        0.1583
     16 C          63.5396   81.8327   10.8170 C.2     1  UNL1        0.2375
     17 N          64.6312   82.7610   10.3734 N.am    1  UNL1       -0.3275
     18 O          62.9415   80.8596    9.8446 O.2     1  UNL1       -0.2736
     19 H          65.0238   83.3997   11.0115 H       1  UNL1        0.1450
     20 H          64.9550   82.7315    9.4441 H       1  UNL1        0.1450
     21 C          64.6297   90.6195   13.2938 C.ar    1  UNL1        0.0914
     22 C          64.8426   91.0242   14.7224 C.ar    1  UNL1        0.0404
     23 C          65.5809   92.2904   15.0411 C.ar    1  UNL1        0.1018
     24 N          66.1063   93.1519   13.9313 N.ar    1  UNL1       -0.2292
     25 C          65.8935   92.7472   12.5027 C.ar    1  UNL1        0.1383
     26 N          65.1552   91.4810   12.1840 N.ar    1  UNL1       -0.2302
     27 C          66.4189   93.6087   11.3929 C.3     1  UNL1        0.0524
     28 C          66.9764   92.5527   10.4851 C.3     1  UNL1        0.0075
     29 C          66.7508   94.8369   10.5984 C.3     1  UNL1        0.0075
     30 C          66.0440   94.9639   11.9153 C.3     1  UNL1        0.0075
@<TRIPOS>BOND
     1     1     2    1
     2     2     3   ar
     3     3     4   ar
     4     4     7    1
     5     7     8   am
     6     8     9    2
     7     8    10   am
     8    10    11    1
     9    11    12    1
    10    12    13    1
    11    13    14    1
    12    14    16    1
    13    16    17   am
    14    16    18    2
    15     4     5   ar
    16     5     6   ar
    17     6    21    1
    18    21    22   ar
    19    22    23   ar
    20    23    24   ar
    21    24    25   ar
    22    25    27    1
    23    27    28    1
    24    27    29    1
    25    29    30    1
    26    25    26   ar
    27     6     2   ar
    28    26    21   ar
    29    14    10    1
    30    30    27    1
    31     7    15    1
    32    17    19    1
    33    17    20    1
@<TRIPOS>MOLECULE
*****
 30 33 0 0 0
SMALL
GASTEIGER

@<TRIPOS>ATOM
      1 C          60.6143   90.5201   10.9677 C.3     1  UNL1        0.0527
      2 C          61.4698   89.3205   11.2486 C.ar    1  UNL1        0.0688
      3 N          61.0482   87.8869   11.1182 N.ar    1  UNL1       -0.2282
      4 C          62.2149   87.0241   11.4982 C.ar    1  UNL1        0.1664
      5 S          63.3577   87.9245   11.8634 S.2     1  UNL1       -0.0502
      6 C          62.8972   89.3437   11.7091 C.ar    1  UNL1        0.0633
      7 N          62.2353   85.5243   11.5108 N.am    1  UNL1       -0.2483
      8 C          62.6355   84.7901   12.7561 C.2     1  UNL1        0.3094
      9 O          63.0154   85.5557   13.9889 O.2     1  UNL1       -0.2522
     10 N          62.6560   83.2903   12.7687 N.am    1  UNL1       -0.2572
     11 C          62.3036   82.3941   11.6186 C.3     1  UNL1        0.0955
     12 C          62.4622   80.9733   12.0727 C.3     1  UNL1        0.0238
     13 C          62.9125   80.9914   13.5033 C.3     1  UNL1        0.0310
     14 C          63.0323   82.4234   13.9335 C.3     1  UNL1        0.1528
     15 H          61.9861   85.0218   10.7017 H       1  UNL1        0.1583
     16 C          63.4542   82.9040   15.2902 C.2     1  UNL1        0.2375
     17 N          64.9044   82.8901   15.6734 N.am    1  UNL1       -0.3275
     18 O          62.4260   83.3987   16.2640 O.2     1  UNL1       -0.2736
     19 H          65.5793   82.5654   15.0343 H       1  UNL1        0.1450
     20 H          65.1813   83.2055   16.5639 H       1  UNL1        0.1450
     21 C          63.7197   90.5708   11.9697 C.ar    1  UNL1        0.0914
     22 C          63.8936   91.5999   10.8924 C.ar    1  UNL1        0.0404
     23 C          64.7160   92.8269   11.1530 C.ar    1  UNL1        0.1018
     24 N          65.3647   93.0248   12.4909 N.ar    1  UNL1       -0.2292
     25 C          65.1908   91.9957   13.5683 C.ar    1  UNL1        0.1383
     26 N          64.3683   90.7687   13.3077 N.ar    1  UNL1       -0.2302
     27 C          65.8394   92.1937   14.9062 C.3     1  UNL1        0.0524
     28 C          64.6850   91.8664   15.8063 C.3     1  UNL1        0.0075
     29 C          66.8889   92.5052   15.9315 C.3     1  UNL1        0.0075
     30 C          67.2191   92.5897   14.4708 C.3     1  UNL1        0.0075
@<TRIPOS>BOND
     1     1     2    1
     2     2     3   ar
     3     3     4   ar
     4     4     7    1
     5     7     8   am
     6     8     9    2
     7     8    10   am
     8    10    11    1
     9    11    12    1
    10    12    13    1
    11    13    14    1
    12    14    16    1
    13    16    17   am
    14    16    18    2
    15     4     5   ar
    16     5     6   ar
    17     6    21    1
    18    21    22   ar
    19    22    23   ar
    20    23    24   ar
    21    24    25   ar
    22    25    27    1
    23    27    28    1
    24    27    29    1
    25    29    30    1
    26    25    26   ar
    27     6     2   ar
    28    26    21   ar
    29    14    10    1
    30    30    27    1
    31     7    15    1
    32    17    19    1
    33    17    20    1
@<TRIPOS>MOLECULE
*****
 30 33 0 0 0
SMALL
GASTEIGER

@<TRIPOS>ATOM
      1 C          60.9072   90.7497   11.1919 C.3     1  UNL1        0.0527
      2 C          61.7096   89.5104   11.4570 C.ar    1  UNL1        0.0688
      3 N          61.2714   88.1017   11.1861 N.ar    1  UNL1       -0.2282
      4 C          62.3820   87.1828   11.6012 C.ar    1  UNL1        0.1664
      5 S          63.5065   88.0237   12.1287 S.2     1  UNL1       -0.0502
      6 C          63.0910   89.4623   12.0395 C.ar    1  UNL1        0.0633
      7 N          62.3701   85.6859   11.5056 N.am    1  UNL1       -0.2483
      8 C          62.7185   84.8550   12.7049 C.2     1  UNL1        0.3094
      9 O          63.0788   85.5211   13.9998 O.2     1  UNL1       -0.2522
     10 N          62.7066   83.3581   12.6093 N.am    1  UNL1       -0.2572
     11 C          62.3686   82.5553   11.3882 C.3     1  UNL1        0.0955
     12 C          62.4837   81.1023   11.7423 C.3     1  UNL1        0.0238
     13 C          62.8929   81.0071   13.1822 C.3     1  UNL1        0.0310
     14 C          63.0307   82.4013   13.7181 C.3     1  UNL1        0.1528
     15 H          62.1336   85.2488   10.6558 H       1  UNL1        0.1583
     16 C          63.4235   82.7733   15.1171 C.2     1  UNL1        0.2375
     17 N          62.4107   83.3749   16.0457 N.am    1  UNL1       -0.3275
     18 O          64.8292   82.5436   15.5876 O.2     1  UNL1       -0.2736
     19 H          61.4881   83.5257   15.7370 H       1  UNL1        0.1450
     20 H          62.6686   83.6191   16.9639 H       1  UNL1        0.1450
     21 C          63.9126   90.6450   12.4593 C.ar    1  UNL1        0.0914
     22 C          64.0054   91.0171   13.9094 C.ar    1  UNL1        0.0404
     23 C          64.8270   92.1998   14.3291 C.ar    1  UNL1        0.1018
     24 N          65.5559   93.0103   13.2986 N.ar    1  UNL1       -0.2292
     25 C          65.4631   92.6382   11.8485 C.ar    1  UNL1        0.1383
     26 N          64.6415   91.4555   11.4289 N.ar    1  UNL1       -0.2302
     27 C          66.1920   93.4487   10.8181 C.3     1  UNL1        0.0524
     28 C          65.4091   94.7262   10.8900 C.3     1  UNL1        0.0075
     29 C          67.1927   93.8156    9.7628 C.3     1  UNL1        0.0075
     30 C          67.2281   92.4528   10.3884 C.3     1  UNL1        0.0075
@<TRIPOS>BOND
     1     1     2    1
     2     2     3   ar
     3     3     4   ar
     4     4     7    1
     5     7     8   am
     6     8     9    2
     7     8    10   am
     8    10    11    1
     9    11    12    1
    10    12    13    1
    11    13    14    1
    12    14    16    1
    13    16    17   am
    14    16    18    2
    15     4     5   ar
    16     5     6   ar
    17     6    21    1
    18    21    22   ar
    19    22    23   ar
    20    23    24   ar
    21    24    25   ar
    22    25    27    1
    23    27    28    1
    24    27    29    1
    25    29    30    1
    26    25    26   ar
    27     6     2   ar
    28    26    21   ar
    29    14    10    1
    30    30    27    1
    31     7    15    1
    32    17    19    1
    33    17    20    1
@<TRIPOS>MOLECULE
*****
 30 33 0 0 0
SMALL
GASTEIGER

@<TRIPOS>ATOM
      1 C          59.6349   88.1912   10.0991 C.3     1  UNL1        0.0527
      2 C          60.9702   88.8567   10.2542 C.ar    1  UNL1        0.0688
      3 N          61.2711   90.3020    9.9888 N.ar    1  UNL1       -0.2282
      4 C          62.7259   90.5324   10.2726 C.ar    1  UNL1        0.1664
      5 S          63.3241   89.2294   10.7134 S.2     1  UNL1       -0.0502
      6 C          62.2390   88.1938   10.7020 C.ar    1  UNL1        0.0633
      7 N          63.4545   91.8367   10.1390 N.am    1  UNL1       -0.2483
      8 C          64.4568   92.2457   11.1773 C.2     1  UNL1        0.3094
      9 O          64.7305   91.3503   12.3493 O.2     1  UNL1       -0.2522
     10 N          65.1854   93.5500   11.0437 N.am    1  UNL1       -0.2572
     11 C          65.0177   94.5438    9.9329 C.3     1  UNL1        0.0955
     12 C          65.9383   95.6975   10.2002 C.3     1  UNL1        0.0238
     13 C          66.6750   95.4167   11.4762 C.3     1  UNL1        0.0310
     14 C          66.2097   94.0894   11.9976 C.3     1  UNL1        0.1528
     15 H          63.2749   92.4244    9.3698 H       1  UNL1        0.1583
     16 C          66.6852   93.4193   13.2525 C.2     1  UNL1        0.2375
     17 N          67.6906   92.3089   13.1751 N.am    1  UNL1       -0.3275
     18 O          66.1553   93.8597   14.5849 O.2     1  UNL1       -0.2736
     19 H          68.0385   92.0198   12.3006 H       1  UNL1        0.1450
     20 H          68.0027   91.8691   13.9988 H       1  UNL1        0.1450
     21 C          62.3954   86.7488   11.0734 C.ar    1  UNL1        0.0914
     22 C          62.1808   85.6818   10.0413 C.ar    1  UNL1        0.0404
     23 C          62.3371   84.2369   10.4126 C.ar    1  UNL1        0.1018
     24 N          62.7082   83.8592   11.8161 N.ar    1  UNL1       -0.2292
     25 C          62.9228   84.9262   12.8481 C.ar    1  UNL1        0.1383
     26 N          62.7665   86.3711   12.4768 N.ar    1  UNL1       -0.2302
     27 C          63.2939   84.5485   14.2516 C.3     1  UNL1        0.0524
     28 C          64.4284   85.5011   14.4865 C.3     1  UNL1        0.0075
     29 C          63.2709   83.8398   15.5734 C.3     1  UNL1        0.0075
     30 C          62.2882   83.4646   14.5041 C.3     1  UNL1        0.0075
@<TRIPOS>BOND
     1     1     2    1
     2     2     3   ar
     3     3     4   ar
     4     4     7    1
     5     7     8   am
     6     8     9    2
     7     8    10   am
     8    10    11    1
     9    11    12    1
    10    12    13    1
    11    13    14    1
    12    14    16    1
    13    16    17   am
    14    16    18    2
    15     4     5   ar
    16     5     6   ar
    17     6    21    1
    18    21    22   ar
    19    22    23   ar
    20    23    24   ar
    21    24    25   ar
    22    25    27    1
    23    27    28    1
    24    27    29    1
    25    29    30    1
    26    25    26   ar
    27     6     2   ar
    28    26    21   ar
    29    14    10    1
    30    30    27    1
    31     7    15    1
    32    17    19    1
    33    17    20    1
@<TRIPOS>MOLECULE
*****
 30 33 0 0 0
SMALL
GASTEIGER

@<TRIPOS>ATOM
      1 C          70.0808   74.2045   15.9864 C.3     1  UNL1        0.0527
      2 C          70.8887   74.9858   14.9930 C.ar    1  UNL1        0.0688
      3 N          71.0712   76.4746   14.9811 N.ar    1  UNL1       -0.2282
      4 C          71.9513   76.8245   13.8178 C.ar    1  UNL1        0.1664
      5 S          72.3126   75.5519   13.1107 S.2     1  UNL1       -0.0502
      6 C          71.6559   74.4155   13.8370 C.ar    1  UNL1        0.0633
      7 N          72.3925   78.2046   13.4297 N.am    1  UNL1       -0.2483
      8 C          72.3582   78.6260   11.9905 C.2     1  UNL1        0.3094
      9 O          71.8826   77.6673   10.9394 O.2     1  UNL1       -0.2522
     10 N          72.7994   80.0062   11.6025 N.am    1  UNL1       -0.2572
     11 C          73.2968   81.0683   12.5376 C.3     1  UNL1        0.0955
     12 C          73.6254   82.2850   11.7242 C.3     1  UNL1        0.0238
     13 C          73.3311   81.9748   10.2864 C.3     1  UNL1        0.0310
     14 C          72.8205   80.5664   10.2112 C.3     1  UNL1        0.1528
     15 H          72.7046   78.8338   14.1196 H       1  UNL1        0.1583
     16 C          72.4043   79.8450    8.9638 C.2     1  UNL1        0.2375
     17 N          71.0996   80.1798    8.3036 N.am    1  UNL1       -0.3275
     18 O          73.2927   78.7887    8.3763 O.2     1  UNL1       -0.2736
     19 H          70.5165   80.8730    8.6891 H       1  UNL1        0.1450
     20 H          70.8265   79.7063    7.4848 H       1  UNL1        0.1450
     21 C          71.7499   72.9637   13.4715 C.ar    1  UNL1        0.0914
     22 C          73.0209   72.2079   13.7227 C.ar    1  UNL1        0.0404
     23 C          73.1149   70.7562   13.3572 C.ar    1  UNL1        0.1018
     24 N          71.9378   70.0603   12.7404 N.ar    1  UNL1       -0.2292
     25 C          70.6668   70.8162   12.4892 C.ar    1  UNL1        0.1383
     26 N          70.5729   72.2679   12.8547 N.ar    1  UNL1       -0.2302
     27 C          69.4898   70.1203   11.8725 C.3     1  UNL1        0.0524
     28 C          69.3322   70.9336   10.6220 C.3     1  UNL1        0.0075
     29 C          68.3675   69.1421   11.6900 C.3     1  UNL1        0.0075
     30 C          69.2385   69.0654   12.9088 C.3     1  UNL1        0.0075
@<TRIPOS>BOND
     1     1     2    1
     2     2     3   ar
     3     3     4   ar
     4     4     7    1
     5     7     8   am
     6     8     9    2
     7     8    10   am
     8    10    11    1
     9    11    12    1
    10    12    13    1
    11    13    14    1
    12    14    16    1
    13    16    17   am
    14    16    18    2
    15     4     5   ar
    16     5     6   ar
    17     6    21    1
    18    21    22   ar
    19    22    23   ar
    20    23    24   ar
    21    24    25   ar
    22    25    27    1
    23    27    28    1
    24    27    29    1
    25    29    30    1
    26    25    26   ar
    27     6     2   ar
    28    26    21   ar
    29    14    10    1
    30    30    27    1
    31     7    15    1
    32    17    19    1
    33    17    20    1
