@<TRIPOS>MOLECULE
*****
 31 33 0 0 0
SMALL
GASTEIGER

@<TRIPOS>ATOM
      1 C          63.5461   90.7375   11.6567 C.3     1  UNL1        0.1400
      2 O          62.7640   91.1365   10.4405 O.3     1  UNL1       -0.3517
      3 C          61.8515   90.0010   10.0830 C.3     1  UNL1        0.1454
      4 C          62.0695   88.9001   11.0784 C.3     1  UNL1        0.0659
      5 C          63.1168   89.3553   12.0509 C.3     1  UNL1        0.0658
      6 C          66.2612   93.5515   12.3347 C.ar    1  UNL1        0.1719
      7 C          65.2308   92.7152   11.6355 C.ar    1  UNL1        0.0381
      8 C          64.5765   91.5738   12.3560 C.ar    1  UNL1        0.0078
      9 C          64.9525   91.2688   13.7756 C.ar    1  UNL1        0.0014
     10 C          65.9828   92.1051   14.4748 C.ar    1  UNL1        0.0395
     11 C          66.6372   93.2464   13.7544 C.ar    1  UNL1        0.1677
     12 O          67.6676   94.0828   14.4536 O.3     1  UNL1       -0.5029
     13 H          67.9024   93.8922   15.3405 H       1  UNL1        0.2923
     14 C          66.8798   94.7532   10.1159 C.3     1  UNL1        0.2526
     15 O          66.9155   94.6929   11.6142 O.3     1  UNL1       -0.4684
     16 C          61.3641   87.5765   11.0977 C.3     1  UNL1        0.1353
     17 O          59.8941   87.5142   11.3895 O.3     1  UNL1       -0.3800
     18 H          59.5564   88.4108   11.5415 H       1  UNL1        0.2108
     19 C          62.1287   86.3151   10.8253 C.ar    1  UNL1        0.0075
     20 C          62.5260   85.9673    9.4213 C.ar    1  UNL1        0.0014
     21 C          63.2906   84.7059    9.1489 C.ar    1  UNL1        0.0395
     22 C          63.6580   83.7924   10.2804 C.ar    1  UNL1        0.1677
     23 O          64.4227   82.5309   10.0080 O.3     1  UNL1       -0.5029
     24 C          63.2607   84.1402   11.6843 C.ar    1  UNL1        0.1719
     25 C          62.4961   85.4015   11.9568 C.ar    1  UNL1        0.0381
     26 H          64.6708   82.3136    9.1310 H       1  UNL1        0.2923
     27 O          63.6281   83.2265   12.8159 O.3     1  UNL1       -0.4684
     28 C          64.6072   83.6798   13.8581 C.3     1  UNL1        0.2526
     29 C          63.6426   88.5668   13.2136 C.3     1  UNL1        0.1400
     30 O          63.2370   88.9305   14.6112 O.3     1  UNL1       -0.3819
     31 H          63.5928   89.8049   14.8340 H       1  UNL1        0.2104
@<TRIPOS>BOND
     1    14    15    1
     2    15     6    1
     3     6     7   ar
     4     7     8   ar
     5     1     8    1
     6     1     2    1
     7     2     3    1
     8     4     3    1
     9     4    16    1
    10    16    17    1
    11    16    19    1
    12    19    20   ar
    13    20    21   ar
    14    21    22   ar
    15    22    23    1
    16    22    24   ar
    17    24    27    1
    18    27    28    1
    19    24    25   ar
    20     4     5    1
    21     5    29    1
    22    29    30    1
    23     8     9   ar
    24     9    10   ar
    25    10    11   ar
    26    11    12    1
    27    11     6   ar
    28     5     1    1
    29    25    19   ar
    30    17    18    1
    31    23    26    1
    32    30    31    1
    33    12    13    1
@<TRIPOS>MOLECULE
*****
 31 33 0 0 0
SMALL
GASTEIGER

@<TRIPOS>ATOM
      1 C          62.8127   86.5784   11.8687 C.3     1  UNL1        0.1400
      2 O          62.1251   87.4314   10.8442 O.3     1  UNL1       -0.3517
      3 C          62.2730   88.8650   11.2598 C.3     1  UNL1        0.1454
      4 C          63.0522   88.8981   12.5412 C.3     1  UNL1        0.0659
      5 C          63.3857   87.4849   12.9175 C.3     1  UNL1        0.0658
      6 C          62.6093   82.7908   13.0359 C.ar    1  UNL1        0.1719
      7 C          62.5118   84.2874   13.0565 C.ar    1  UNL1        0.0381
      8 C          62.9103   85.0817   11.8480 C.ar    1  UNL1        0.0078
      9 C          63.4063   84.3793   10.6190 C.ar    1  UNL1        0.0014
     10 C          63.5039   82.8827   10.5984 C.ar    1  UNL1        0.0395
     11 C          63.1054   82.0884   11.8069 C.ar    1  UNL1        0.1677
     12 O          63.2029   80.5917   11.7862 O.3     1  UNL1       -0.5029
     13 H          63.5128   80.1529   11.0185 H       1  UNL1        0.2923
     14 C          61.0465   81.0536   14.1716 C.3     1  UNL1        0.2526
     15 O          62.2108   81.9965   14.2443 O.3     1  UNL1       -0.4684
     16 C          63.4312   90.1284   13.3111 C.3     1  UNL1        0.1353
     17 O          62.8503   90.3697   14.6729 O.3     1  UNL1       -0.3800
     18 H          62.2538   89.6404   14.9037 H       1  UNL1        0.2108
     19 C          64.3911   91.1175   12.7192 C.ar    1  UNL1        0.0075
     20 C          64.1968   91.6019   11.3129 C.ar    1  UNL1        0.0014
     21 C          65.1567   92.5909   10.7211 C.ar    1  UNL1        0.0395
     22 C          66.3109   93.0955   11.5355 C.ar    1  UNL1        0.1677
     23 O          67.2709   94.0846   10.9436 O.3     1  UNL1       -0.5029
     24 C          66.5052   92.6111   12.9417 C.ar    1  UNL1        0.1719
     25 C          65.5453   91.6220   13.5336 C.ar    1  UNL1        0.0381
     26 H          67.1496   94.3872   10.0652 H       1  UNL1        0.2923
     27 O          67.6595   93.1157   13.7561 O.3     1  UNL1       -0.4684
     28 C          67.4833   93.3827   15.2215 C.3     1  UNL1        0.2526
     29 C          64.1568   87.0539   14.1298 C.3     1  UNL1        0.1400
     30 O          63.6911   87.4573   15.4974 O.3     1  UNL1       -0.3819
     31 H          63.7634   88.4198   15.5928 H       1  UNL1        0.2104
@<TRIPOS>BOND
     1    14    15    1
     2    15     6    1
     3     6     7   ar
     4     7     8   ar
     5     1     8    1
     6     1     2    1
     7     2     3    1
     8     4     3    1
     9     4    16    1
    10    16    17    1
    11    16    19    1
    12    19    20   ar
    13    20    21   ar
    14    21    22   ar
    15    22    23    1
    16    22    24   ar
    17    24    27    1
    18    27    28    1
    19    24    25   ar
    20     4     5    1
    21     5    29    1
    22    29    30    1
    23     8     9   ar
    24     9    10   ar
    25    10    11   ar
    26    11    12    1
    27    11     6   ar
    28     5     1    1
    29    25    19   ar
    30    17    18    1
    31    23    26    1
    32    30    31    1
    33    12    13    1
@<TRIPOS>MOLECULE
*****
 31 33 0 0 0
SMALL
GASTEIGER

@<TRIPOS>ATOM
      1 C          63.5179   85.9420   13.0796 C.3     1  UNL1        0.1400
      2 O          64.3710   86.5140   14.1727 O.3     1  UNL1       -0.3517
      3 C          64.2226   88.0064   14.1436 C.3     1  UNL1        0.1454
      4 C          63.2777   88.3567   13.0324 C.3     1  UNL1        0.0659
      5 C          62.8422   87.0807   12.3749 C.3     1  UNL1        0.0658
      6 C          62.5902   82.0976   13.4122 C.ar    1  UNL1        0.1719
      7 C          62.7411   83.5530   13.7426 C.ar    1  UNL1        0.0381
      8 C          63.3670   84.4865   12.7492 C.ar    1  UNL1        0.0078
      9 C          63.8418   83.9648   11.4255 C.ar    1  UNL1        0.0014
     10 C          63.6908   82.5095   11.0952 C.ar    1  UNL1        0.0395
     11 C          63.0650   81.5759   12.0885 C.ar    1  UNL1        0.1677
     12 O          62.9141   80.1205   11.7581 O.3     1  UNL1       -0.5029
     13 H          63.2107   79.7946   10.9312 H       1  UNL1        0.2923
     14 C          60.5638   80.6712   14.1926 C.3     1  UNL1        0.2526
     15 O          61.9644   81.1640   14.4056 O.3     1  UNL1       -0.4684
     16 C          62.8445   89.7399   12.6466 C.3     1  UNL1        0.1353
     17 O          61.3846   90.0609   12.5210 O.3     1  UNL1       -0.3800
     18 H          60.8611   89.2693   12.7214 H       1  UNL1        0.2108
     19 C          63.8711   90.8021   12.3864 C.ar    1  UNL1        0.0075
     20 C          64.0110   91.3896   11.0133 C.ar    1  UNL1        0.0014
     21 C          65.0376   92.4518   10.7531 C.ar    1  UNL1        0.0395
     22 C          65.9243   92.9265   11.8660 C.ar    1  UNL1        0.1677
     23 O          66.9510   93.9888   11.6058 O.3     1  UNL1       -0.5029
     24 C          65.7844   92.3391   13.2390 C.ar    1  UNL1        0.1719
     25 C          64.7578   91.2769   13.4992 C.ar    1  UNL1        0.0381
     26 H          67.0384   94.3558   10.7481 H       1  UNL1        0.2923
     27 O          66.6711   92.8139   14.3518 O.3     1  UNL1       -0.4684
     28 C          67.6213   91.8596   15.0126 C.3     1  UNL1        0.2526
     29 C          61.8970   86.9641   11.2160 C.3     1  UNL1        0.1400
     30 O          60.4517   87.3272   11.3876 O.3     1  UNL1       -0.3819
     31 H          60.0327   86.7046   12.0021 H       1  UNL1        0.2104
@<TRIPOS>BOND
     1    14    15    1
     2    15     6    1
     3     6     7   ar
     4     7     8   ar
     5     1     8    1
     6     1     2    1
     7     2     3    1
     8     4     3    1
     9     4    16    1
    10    16    17    1
    11    16    19    1
    12    19    20   ar
    13    20    21   ar
    14    21    22   ar
    15    22    23    1
    16    22    24   ar
    17    24    27    1
    18    27    28    1
    19    24    25   ar
    20     4     5    1
    21     5    29    1
    22    29    30    1
    23     8     9   ar
    24     9    10   ar
    25    10    11   ar
    26    11    12    1
    27    11     6   ar
    28     5     1    1
    29    25    19   ar
    30    17    18    1
    31    23    26    1
    32    30    31    1
    33    12    13    1
@<TRIPOS>MOLECULE
*****
 31 33 0 0 0
SMALL
GASTEIGER

@<TRIPOS>ATOM
      1 C          63.8860   86.8234   13.8824 C.3     1  UNL1        0.1400
      2 O          64.6026   87.6865   14.8782 O.3     1  UNL1       -0.3517
      3 C          64.4346   89.1165   14.4580 C.3     1  UNL1        0.1454
      4 C          63.6141   89.1374   13.2024 C.3     1  UNL1        0.0659
      5 C          63.2751   87.7202   12.8467 C.3     1  UNL1        0.0658
      6 C          64.1885   83.0226   12.7813 C.ar    1  UNL1        0.1719
      7 C          64.2784   84.5195   12.7475 C.ar    1  UNL1        0.0381
      8 C          63.7961   85.3265   13.9163 C.ar    1  UNL1        0.0078
      9 C          63.2239   84.6366   15.1190 C.ar    1  UNL1        0.0014
     10 C          63.1340   83.1397   15.1529 C.ar    1  UNL1        0.0395
     11 C          63.6163   82.3327   13.9841 C.ar    1  UNL1        0.1677
     12 O          63.5263   80.8357   14.0180 O.3     1  UNL1       -0.5029
     13 H          63.1689   80.4048   14.7693 H       1  UNL1        0.2923
     14 C          64.2225   82.5645   10.2242 C.3     1  UNL1        0.2526
     15 O          64.6708   82.2156   11.6125 O.3     1  UNL1       -0.4684
     16 C          63.2046   90.3606   12.4369 C.3     1  UNL1        0.1353
     17 O          61.7728   90.5464   12.0300 O.3     1  UNL1       -0.3800
     18 H          61.2485   89.7907   12.3380 H       1  UNL1        0.2108
     19 C          64.2269   91.3981   12.0783 C.ar    1  UNL1        0.0075
     20 C          64.3240   91.8993   10.6679 C.ar    1  UNL1        0.0014
     21 C          65.3463   92.9368   10.3094 C.ar    1  UNL1        0.0395
     22 C          66.2714   93.4730   11.3613 C.ar    1  UNL1        0.1677
     23 O          67.2938   94.5105   11.0028 O.3     1  UNL1       -0.5029
     24 C          66.1743   92.9718   12.7717 C.ar    1  UNL1        0.1719
     25 C          65.1520   91.9344   13.1302 C.ar    1  UNL1        0.0381
     26 H          67.3545   94.8237   10.1217 H       1  UNL1        0.2923
     27 O          67.0995   93.5081   13.8236 O.3     1  UNL1       -0.4684
     28 C          66.9512   93.0655   15.2491 C.3     1  UNL1        0.2526
     29 C          62.4670   87.2774   11.6631 C.3     1  UNL1        0.1400
     30 O          61.0103   87.6246   11.5772 O.3     1  UNL1       -0.3819
     31 H          60.5269   87.1683   12.2836 H       1  UNL1        0.2104
@<TRIPOS>BOND
     1    14    15    1
     2    15     6    1
     3     6     7   ar
     4     7     8   ar
     5     1     8    1
     6     1     2    1
     7     2     3    1
     8     4     3    1
     9     4    16    1
    10    16    17    1
    11    16    19    1
    12    19    20   ar
    13    20    21   ar
    14    21    22   ar
    15    22    23    1
    16    22    24   ar
    17    24    27    1
    18    27    28    1
    19    24    25   ar
    20     4     5    1
    21     5    29    1
    22    29    30    1
    23     8     9   ar
    24     9    10   ar
    25    10    11   ar
    26    11    12    1
    27    11     6   ar
    28     5     1    1
    29    25    19   ar
    30    17    18    1
    31    23    26    1
    32    30    31    1
    33    12    13    1
@<TRIPOS>MOLECULE
*****
 31 33 0 0 0
SMALL
GASTEIGER

@<TRIPOS>ATOM
      1 C          65.9545   92.0739   12.4311 C.3     1  UNL1        0.1400
      2 O          66.5863   91.8185   13.7673 O.3     1  UNL1       -0.3517
      3 C          65.7295   90.8322   14.5043 C.3     1  UNL1        0.1454
      4 C          64.5681   90.4781   13.6236 C.3     1  UNL1        0.0659
      5 C          64.7071   91.2455   12.3423 C.3     1  UNL1        0.0658
      6 C          66.4287   95.2966   10.1640 C.ar    1  UNL1        0.1719
      7 C          65.9052   94.3746   11.2251 C.ar    1  UNL1        0.0381
      8 C          66.4780   92.9959   11.3700 C.ar    1  UNL1        0.0078
      9 C          67.5743   92.5391   10.4538 C.ar    1  UNL1        0.0014
     10 C          68.0978   93.4610    9.3927 C.ar    1  UNL1        0.0395
     11 C          67.5250   94.8398    9.2479 C.ar    1  UNL1        0.1677
     12 O          68.0486   95.7618    8.1867 O.3     1  UNL1       -0.5029
     13 H          68.7334   95.4764    7.6144 H       1  UNL1        0.2923
     14 C          64.3959   96.8538    9.7256 C.3     1  UNL1        0.2526
     15 O          65.8559   96.6753   10.0192 O.3     1  UNL1       -0.4684
     16 C          63.4619   89.5241   13.9643 C.3     1  UNL1        0.1353
     17 O          62.1177   90.0495   14.3732 O.3     1  UNL1       -0.3800
     18 H          62.1336   91.0193   14.3653 H       1  UNL1        0.2108
     19 C          63.6998   88.0446   13.8962 C.ar    1  UNL1        0.0075
     20 C          64.5146   87.3664   14.9574 C.ar    1  UNL1        0.0014
     21 C          64.7525   85.8870   14.8892 C.ar    1  UNL1        0.0395
     22 C          64.1757   85.0858   13.7598 C.ar    1  UNL1        0.1677
     23 O          64.4137   83.6063   13.6917 O.3     1  UNL1       -0.5029
     24 C          63.3610   85.7641   12.6987 C.ar    1  UNL1        0.1719
     25 C          63.1231   87.2435   12.7668 C.ar    1  UNL1        0.0381
     26 H          64.9226   83.1826   14.3545 H       1  UNL1        0.2923
     27 O          62.7842   84.9628   11.5693 O.3     1  UNL1       -0.4684
     28 C          62.1470   85.6601   10.4040 C.3     1  UNL1        0.2526
     29 C          63.7644   91.1936   11.1767 C.3     1  UNL1        0.1400
     30 O          62.2826   91.1931   11.4101 O.3     1  UNL1       -0.3819
     31 H          62.0268   90.3740   11.8624 H       1  UNL1        0.2104
@<TRIPOS>BOND
     1    14    15    1
     2    15     6    1
     3     6     7   ar
     4     7     8   ar
     5     1     8    1
     6     1     2    1
     7     2     3    1
     8     4     3    1
     9     4    16    1
    10    16    17    1
    11    16    19    1
    12    19    20   ar
    13    20    21   ar
    14    21    22   ar
    15    22    23    1
    16    22    24   ar
    17    24    27    1
    18    27    28    1
    19    24    25   ar
    20     4     5    1
    21     5    29    1
    22    29    30    1
    23     8     9   ar
    24     9    10   ar
    25    10    11   ar
    26    11    12    1
    27    11     6   ar
    28     5     1    1
    29    25    19   ar
    30    17    18    1
    31    23    26    1
    32    30    31    1
    33    12    13    1
@<TRIPOS>MOLECULE
*****
 31 33 0 0 0
SMALL
GASTEIGER

@<TRIPOS>ATOM
      1 C          62.4398   89.7809   10.5236 C.3     1  UNL1        0.1400
      2 O          62.8608   91.1340   10.0319 O.3     1  UNL1       -0.3517
      3 C          63.5625   91.8378   11.1554 C.3     1  UNL1        0.1454
      4 C          63.5752   90.9196   12.3416 C.3     1  UNL1        0.0659
      5 C          62.8813   89.6484   11.9511 C.3     1  UNL1        0.0658
      6 C          59.8862   88.1157    7.9827 C.ar    1  UNL1        0.1719
      7 C          60.6199   89.1540    8.7786 C.ar    1  UNL1        0.0381
      8 C          61.7061   88.7424    9.7277 C.ar    1  UNL1        0.0078
      9 C          62.0586   87.2926    9.8809 C.ar    1  UNL1        0.0014
     10 C          61.3249   86.2542    9.0850 C.ar    1  UNL1        0.0395
     11 C          60.2387   86.6658    8.1359 C.ar    1  UNL1        0.1677
     12 O          59.5049   85.6274    7.3399 O.3     1  UNL1       -0.5029
     13 H          59.7251   84.7217    7.4356 H       1  UNL1        0.2923
     14 C          58.9728   89.7486    6.1801 C.3     1  UNL1        0.2526
     15 O          58.8000   88.5273    7.0336 O.3     1  UNL1       -0.4684
     16 C          64.1762   91.2200   13.6826 C.3     1  UNL1        0.1353
     17 O          63.3118   91.2216   14.9085 O.3     1  UNL1       -0.3800
     18 H          62.3981   91.0110   14.6602 H       1  UNL1        0.2108
     19 C          65.6416   91.5188   13.7978 C.ar    1  UNL1        0.0075
     20 C          66.2588   91.7370   15.1475 C.ar    1  UNL1        0.0014
     21 C          67.7241   92.0358   15.2626 C.ar    1  UNL1        0.0395
     22 C          68.5724   92.1164   14.0281 C.ar    1  UNL1        0.1677
     23 O          70.0378   92.4153   14.1432 O.3     1  UNL1       -0.5029
     24 C          67.9552   91.8983   12.6785 C.ar    1  UNL1        0.1719
     25 C          66.4898   91.5995   12.5634 C.ar    1  UNL1        0.0381
     26 H          70.4234   92.5515   14.9863 H       1  UNL1        0.2923
     27 O          68.8036   91.9790   11.4440 O.3     1  UNL1       -0.4684
     28 C          68.1670   92.2501   10.1131 C.3     1  UNL1        0.2526
     29 C          62.6666   88.4544   12.8332 C.3     1  UNL1        0.1400
     30 O          63.8449   87.7037   13.3792 O.3     1  UNL1       -0.3819
     31 H          64.3260   87.2823   12.6499 H       1  UNL1        0.2104
@<TRIPOS>BOND
     1    14    15    1
     2    15     6    1
     3     6     7   ar
     4     7     8   ar
     5     1     8    1
     6     1     2    1
     7     2     3    1
     8     4     3    1
     9     4    16    1
    10    16    17    1
    11    16    19    1
    12    19    20   ar
    13    20    21   ar
    14    21    22   ar
    15    22    23    1
    16    22    24   ar
    17    24    27    1
    18    27    28    1
    19    24    25   ar
    20     4     5    1
    21     5    29    1
    22    29    30    1
    23     8     9   ar
    24     9    10   ar
    25    10    11   ar
    26    11    12    1
    27    11     6   ar
    28     5     1    1
    29    25    19   ar
    30    17    18    1
    31    23    26    1
    32    30    31    1
    33    12    13    1
@<TRIPOS>MOLECULE
*****
 31 33 0 0 0
SMALL
GASTEIGER

@<TRIPOS>ATOM
      1 C          62.4719   89.6372   10.4277 C.3     1  UNL1        0.1400
      2 O          62.8779   90.9881    9.9179 O.3     1  UNL1       -0.3517
      3 C          63.5237   91.7349   11.0471 C.3     1  UNL1        0.1454
      4 C          63.5169   90.8454   12.2550 C.3     1  UNL1        0.0659
      5 C          62.8668   89.5489   11.8721 C.3     1  UNL1        0.0658
      6 C          61.8186   86.1963    8.5611 C.ar    1  UNL1        0.1719
      7 C          62.4998   87.2705    9.3561 C.ar    1  UNL1        0.0381
      8 C          61.7905   88.5629    9.6327 C.ar    1  UNL1        0.0078
      9 C          60.4000   88.7812    9.1144 C.ar    1  UNL1        0.0014
     10 C          59.7187   87.7070    8.3195 C.ar    1  UNL1        0.0395
     11 C          60.4280   86.4146    8.0429 C.ar    1  UNL1        0.1677
     12 O          59.7467   85.3403    7.2479 O.3     1  UNL1       -0.5029
     13 H          58.8780   85.4767    6.9241 H       1  UNL1        0.2923
     14 C          63.3972   84.2849    9.3386 C.3     1  UNL1        0.2526
     15 O          62.5279   84.9039    8.2845 O.3     1  UNL1       -0.4684
     16 C          64.0640   91.1915   13.6080 C.3     1  UNL1        0.1353
     17 O          63.1532   91.2244   14.7994 O.3     1  UNL1       -0.3800
     18 H          62.2510   90.9993   14.5230 H       1  UNL1        0.2108
     19 C          65.5220   91.5049   13.7697 C.ar    1  UNL1        0.0075
     20 C          66.0926   91.7343   15.1378 C.ar    1  UNL1        0.0014
     21 C          67.5505   92.0476   15.2994 C.ar    1  UNL1        0.0395
     22 C          68.4379   92.1315   14.0930 C.ar    1  UNL1        0.1677
     23 O          69.8959   92.4448   14.2546 O.3     1  UNL1       -0.5029
     24 C          67.8673   91.9020   12.7249 C.ar    1  UNL1        0.1719
     25 C          66.4093   91.5887   12.5633 C.ar    1  UNL1        0.0381
     26 H          70.2524   92.5881   15.1092 H       1  UNL1        0.2923
     27 O          68.7547   91.9859   11.5184 O.3     1  UNL1       -0.4684
     28 C          68.1524   92.1505   10.1545 C.3     1  UNL1        0.2526
     29 C          62.6497   88.3710   12.7751 C.3     1  UNL1        0.1400
     30 O          63.8254   87.6005   13.2985 O.3     1  UNL1       -0.3819
     31 H          64.2767   87.1593   12.5619 H       1  UNL1        0.2104
@<TRIPOS>BOND
     1    14    15    1
     2    15     6    1
     3     6     7   ar
     4     7     8   ar
     5     1     8    1
     6     1     2    1
     7     2     3    1
     8     4     3    1
     9     4    16    1
    10    16    17    1
    11    16    19    1
    12    19    20   ar
    13    20    21   ar
    14    21    22   ar
    15    22    23    1
    16    22    24   ar
    17    24    27    1
    18    27    28    1
    19    24    25   ar
    20     4     5    1
    21     5    29    1
    22    29    30    1
    23     8     9   ar
    24     9    10   ar
    25    10    11   ar
    26    11    12    1
    27    11     6   ar
    28     5     1    1
    29    25    19   ar
    30    17    18    1
    31    23    26    1
    32    30    31    1
    33    12    13    1
@<TRIPOS>MOLECULE
*****
 31 33 0 0 0
SMALL
GASTEIGER

@<TRIPOS>ATOM
      1 C          62.9945   90.0982   12.3907 C.3     1  UNL1        0.1400
      2 O          63.0536   89.9413   13.8813 O.3     1  UNL1       -0.3517
      3 C          64.0907   90.8892   14.4064 C.3     1  UNL1        0.1454
      4 C          64.6727   91.6321   13.2404 C.3     1  UNL1        0.0659
      5 C          63.9951   91.1432   11.9946 C.3     1  UNL1        0.0658
      6 C          61.4111   87.1218   10.2970 C.ar    1  UNL1        0.1719
      7 C          62.3125   87.8772   11.2280 C.ar    1  UNL1        0.0381
      8 C          62.0931   89.3428   11.4596 C.ar    1  UNL1        0.0078
      9 C          60.9723   90.0531   10.7602 C.ar    1  UNL1        0.0014
     10 C          60.0709   89.2977    9.8292 C.ar    1  UNL1        0.0395
     11 C          60.2903   87.8320    9.5976 C.ar    1  UNL1        0.1677
     12 O          59.3889   87.0767    8.6665 O.3     1  UNL1       -0.5029
     13 H          58.6887   87.5204    8.2296 H       1  UNL1        0.2923
     14 C          62.6202   84.9040   10.9050 C.3     1  UNL1        0.2526
     15 O          61.6306   85.6561   10.0654 O.3     1  UNL1       -0.4684
     16 C          65.7439   92.6798   13.3082 C.3     1  UNL1        0.1353
     17 O          66.2044   93.1966   14.6390 O.3     1  UNL1       -0.3800
     18 H          65.7115   92.7523   15.3465 H       1  UNL1        0.2108
     19 C          66.3548   93.2107   12.0453 C.ar    1  UNL1        0.0075
     20 C          67.2375   92.3302   11.2112 C.ar    1  UNL1        0.0014
     21 C          67.8482   92.8611    9.9484 C.ar    1  UNL1        0.0395
     22 C          67.5764   94.2726    9.5195 C.ar    1  UNL1        0.1677
     23 O          68.1872   94.8035    8.2565 O.3     1  UNL1       -0.5029
     24 C          66.6937   95.1530   10.3534 C.ar    1  UNL1        0.1719
     25 C          66.0829   94.6221   11.6164 C.ar    1  UNL1        0.0381
     26 H          68.7386   94.2535    7.7355 H       1  UNL1        0.2923
     27 O          66.4219   96.5645    9.9245 O.3     1  UNL1       -0.4684
     28 C          65.3005   96.8560    8.9718 C.3     1  UNL1        0.2526
     29 C          64.2700   91.6162   10.5980 C.3     1  UNL1        0.1400
     30 O          63.1318   91.9871    9.6941 O.3     1  UNL1       -0.3819
     31 H          62.6047   91.1970    9.4971 H       1  UNL1        0.2104
@<TRIPOS>BOND
     1    14    15    1
     2    15     6    1
     3     6     7   ar
     4     7     8   ar
     5     1     8    1
     6     1     2    1
     7     2     3    1
     8     4     3    1
     9     4    16    1
    10    16    17    1
    11    16    19    1
    12    19    20   ar
    13    20    21   ar
    14    21    22   ar
    15    22    23    1
    16    22    24   ar
    17    24    27    1
    18    27    28    1
    19    24    25   ar
    20     4     5    1
    21     5    29    1
    22    29    30    1
    23     8     9   ar
    24     9    10   ar
    25    10    11   ar
    26    11    12    1
    27    11     6   ar
    28     5     1    1
    29    25    19   ar
    30    17    18    1
    31    23    26    1
    32    30    31    1
    33    12    13    1
@<TRIPOS>MOLECULE
*****
 31 33 0 0 0
SMALL
GASTEIGER

@<TRIPOS>ATOM
      1 C          63.7351   85.7167   13.1630 C.3     1  UNL1        0.1400
      2 O          64.4872   85.9420   14.4410 O.3     1  UNL1       -0.3517
      3 C          64.4364   87.4075   14.7567 C.3     1  UNL1        0.1454
      4 C          63.6527   88.0880   13.6736 C.3     1  UNL1        0.0659
      5 C          63.2193   87.0430   12.6887 C.3     1  UNL1        0.0658
      6 C          62.4999   82.0136   12.4478 C.ar    1  UNL1        0.1719
      7 C          62.7011   83.3334   13.1315 C.ar    1  UNL1        0.0381
      8 C          63.5339   84.3968   12.4792 C.ar    1  UNL1        0.0078
      9 C          64.1656   84.1404   11.1431 C.ar    1  UNL1        0.0014
     10 C          63.9645   82.8205   10.4594 C.ar    1  UNL1        0.0395
     11 C          63.1316   81.7571   11.1117 C.ar    1  UNL1        0.1677
     12 O          62.9305   80.4373   10.4279 O.3     1  UNL1       -0.5029
     13 H          63.3251   80.2771    9.5933 H       1  UNL1        0.2923
     14 C          62.3273   79.7491   13.7095 C.3     1  UNL1        0.2526
     15 O          61.6671   80.9502   13.1002 O.3     1  UNL1       -0.4684
     16 C          63.3548   89.5558   13.5902 C.3     1  UNL1        0.1353
     17 O          62.1546   90.0354   12.8290 O.3     1  UNL1       -0.3800
     18 H          61.6831   89.2743   12.4556 H       1  UNL1        0.2108
     19 C          64.2571   90.5439   14.2681 C.ar    1  UNL1        0.0075
     20 C          63.9874   90.9569   15.6847 C.ar    1  UNL1        0.0014
     21 C          64.8896   91.9450   16.3625 C.ar    1  UNL1        0.0395
     22 C          66.0616   92.5200   15.6237 C.ar    1  UNL1        0.1677
     23 O          66.9640   93.5082   16.3016 O.3     1  UNL1       -0.5029
     24 C          66.3313   92.1070   14.2073 C.ar    1  UNL1        0.1719
     25 C          65.4291   91.1189   13.5294 C.ar    1  UNL1        0.0381
     26 H          66.7956   93.7662   17.1865 H       1  UNL1        0.2923
     27 O          67.5034   92.6821   13.4685 O.3     1  UNL1       -0.4684
     28 C          68.5888   91.7780   12.9641 C.3     1  UNL1        0.2526
     29 C          62.4118   87.2823   11.4474 C.3     1  UNL1        0.1400
     30 O          60.9566   87.6299   11.5547 O.3     1  UNL1       -0.3819
     31 H          60.4702   86.8753   11.9218 H       1  UNL1        0.2104
@<TRIPOS>BOND
     1    14    15    1
     2    15     6    1
     3     6     7   ar
     4     7     8   ar
     5     1     8    1
     6     1     2    1
     7     2     3    1
     8     4     3    1
     9     4    16    1
    10    16    17    1
    11    16    19    1
    12    19    20   ar
    13    20    21   ar
    14    21    22   ar
    15    22    23    1
    16    22    24   ar
    17    24    27    1
    18    27    28    1
    19    24    25   ar
    20     4     5    1
    21     5    29    1
    22    29    30    1
    23     8     9   ar
    24     9    10   ar
    25    10    11   ar
    26    11    12    1
    27    11     6   ar
    28     5     1    1
    29    25    19   ar
    30    17    18    1
    31    23    26    1
    32    30    31    1
    33    12    13    1
