@<TRIPOS>MOLECULE
*****
 37 41 0 0 0
SMALL
GASTEIGER

@<TRIPOS>ATOM
      1 C          62.8614   85.6490   17.0254 C.3     1  UNL1        0.0294
      2 C          63.5155   86.9433   16.6420 C.3     1  UNL1        0.0666
      3 S          62.7822   88.2384   16.8284 S.3     1  UNL1       -0.0756
      4 C          64.2149   88.5141   13.9094 C.3     1  UNL1        0.1340
      5 N          63.9847   89.6280   14.8873 N.ar    1  UNL1       -0.2884
      6 C          63.3261   89.5013   16.2290 C.ar    1  UNL1        0.1932
      7 N          63.3070   90.8591   16.8661 N.ar    1  UNL1       -0.1221
      8 N          63.9538   91.8251   15.9182 N.ar    1  UNL1       -0.1282
      9 C          64.3726   91.0642   14.6951 C.ar    1  UNL1        0.1682
     10 C          65.0588   91.6387   13.4914 C.ar    1  UNL1        0.0576
     11 C          64.3672   91.6343   12.1604 C.ar    1  UNL1        0.0061
     12 C          65.0534   92.2088   10.9566 C.ar    1  UNL1        0.0208
     13 C          66.4314   92.7877   11.0839 C.ar    1  UNL1        0.0988
     14 N          67.1231   92.7921   12.4149 N.ar    1  UNL1       -0.2398
     15 C          66.4367   92.2176   13.6187 C.ar    1  UNL1        0.1555
     16 C          67.1284   92.2220   14.9497 C.3     1  UNL1        0.4349
     17 F          67.8201   92.2264   16.2806 F       1  UNL1       -0.1644
     18 F          66.7193   93.6501   15.1575 F       1  UNL1       -0.1644
     19 F          67.5375   90.7939   14.7418 F       1  UNL1       -0.1644
     20 C          62.1404   84.8375   15.9902 C.3     1  UNL1        0.0730
     21 N          62.8972   84.2527   14.8347 N.3     1  UNL1       -0.2726
     22 C          63.9881   83.2270   14.9238 C.3     1  UNL1        0.0721
     23 C          64.4611   82.9314   13.5314 C.3     1  UNL1        0.0190
     24 C          63.6626   83.7743   12.5818 C.3     1  UNL1        0.0201
     25 C          64.3318   83.2809   11.3333 C.3     1  UNL1        0.0061
     26 C          63.2409   84.3066   11.2442 C.3     1  UNL1        0.0237
     27 C          62.6960   84.5910   13.3873 C.3     1  UNL1        0.0724
     28 C          62.3677   85.2060   10.4206 C.ar    1  UNL1       -0.0225
     29 C          61.3991   86.1328   11.0937 C.ar    1  UNL1       -0.0043
     30 C          60.5259   87.0323   10.2701 C.ar    1  UNL1        0.0035
     31 C          60.6211   87.0049    8.7734 C.ar    1  UNL1        0.0714
     32 C          61.5897   86.0782    8.1003 C.ar    1  UNL1        0.0035
     33 C          62.4629   85.1787    8.9239 C.ar    1  UNL1       -0.0043
     34 C          59.7479   87.9044    7.9498 C.3     1  UNL1        0.4186
     35 F          58.8745   88.8039    7.1261 F       1  UNL1       -0.1659
     36 F          60.4456   89.1037    8.5198 F       1  UNL1       -0.1659
     37 F          59.0502   86.7051    7.3798 F       1  UNL1       -0.1659
@<TRIPOS>BOND
     1     4     5    1
     2     5     6   ar
     3     6     3    1
     4     3     2    1
     5     2     1    1
     6     1    20    1
     7    20    21    1
     8    21    22    1
     9    22    23    1
    10    24    23    1
    11    24    25    1
    12    25    26    1
    13    26    28    1
    14    28    29   ar
    15    29    30   ar
    16    30    31   ar
    17    31    34    1
    18    34    35    1
    19    34    36    1
    20    34    37    1
    21    31    32   ar
    22    32    33   ar
    23    24    27    1
    24     6     7   ar
    25     7     8   ar
    26     8     9   ar
    27     9    10    1
    28    10    11   ar
    29    11    12   ar
    30    12    13   ar
    31    13    14   ar
    32    14    15   ar
    33    15    16    1
    34    16    17    1
    35    16    18    1
    36    16    19    1
    37     9     5   ar
    38    15    10   ar
    39    27    21    1
    40    26    24    1
    41    33    28   ar
@<TRIPOS>MOLECULE
*****
 37 41 0 0 0
SMALL
GASTEIGER

@<TRIPOS>ATOM
      1 C          64.4876   83.6323   14.4042 C.3     1  UNL1        0.0294
      2 C          63.9805   82.9844   13.1499 C.3     1  UNL1        0.0666
      3 S          63.9814   83.7474   11.8585 S.3     1  UNL1       -0.0756
      4 C          63.0988   84.8536    8.9179 C.3     1  UNL1        0.1340
      5 N          62.4996   85.2636   10.2305 N.ar    1  UNL1       -0.2884
      6 C          62.9053   84.7552   11.5821 C.ar    1  UNL1        0.1932
      7 N          62.0459   85.4314   12.6089 N.ar    1  UNL1       -0.1221
      8 N          61.1091   86.3578   11.8918 N.ar    1  UNL1       -0.1282
      9 C          61.3895   86.2541   10.4219 C.ar    1  UNL1        0.1682
     10 C          60.6836   87.0085    9.3343 C.ar    1  UNL1        0.0576
     11 C          60.0841   86.2683    8.1756 C.ar    1  UNL1        0.0061
     12 C          59.3783   87.0227    7.0880 C.ar    1  UNL1        0.0208
     13 C          59.2721   88.5173    7.1593 C.ar    1  UNL1        0.0988
     14 N          59.8716   89.2575    8.3181 N.ar    1  UNL1       -0.2398
     15 C          60.5774   88.5030    9.4056 C.ar    1  UNL1        0.1555
     16 C          61.1770   89.2432   10.5643 C.3     1  UNL1        0.4349
     17 F          61.7766   89.9833   11.7230 F       1  UNL1       -0.1644
     18 F          62.5201   89.1984    9.8979 F       1  UNL1       -0.1644
     19 F          59.8339   89.2879   11.2307 F       1  UNL1       -0.1644
     20 C          65.0426   85.0251   14.3575 C.3     1  UNL1        0.0730
     21 N          64.3880   86.1202   15.1463 N.3     1  UNL1       -0.2726
     22 C          63.5255   85.9381   16.3600 C.3     1  UNL1        0.0721
     23 C          63.0855   87.2950   16.8237 C.3     1  UNL1        0.0190
     24 C          63.6761   88.3158   15.8967 C.3     1  UNL1        0.0201
     25 C          63.0868   89.5116   16.5843 C.3     1  UNL1        0.0061
     26 C          63.9493   89.6937   15.3707 C.3     1  UNL1        0.0237
     27 C          64.4811   87.5897   14.8600 C.3     1  UNL1        0.0724
     28 C          64.6051   90.5943   14.3663 C.ar    1  UNL1       -0.0225
     29 C          65.9599   91.1726   14.6493 C.ar    1  UNL1       -0.0043
     30 C          66.6156   92.0733   13.6449 C.ar    1  UNL1        0.0035
     31 C          65.9165   92.3956   12.3575 C.ar    1  UNL1        0.0714
     32 C          64.5617   91.8174   12.0745 C.ar    1  UNL1        0.0035
     33 C          63.9060   90.9167   13.0789 C.ar    1  UNL1       -0.0043
     34 C          66.5723   93.2963   11.3531 C.3     1  UNL1        0.4186
     35 F          67.2281   94.1970   10.3487 F       1  UNL1       -0.1659
     36 F          66.0894   94.4958   12.1135 F       1  UNL1       -0.1659
     37 F          67.0552   92.0968   10.5928 F       1  UNL1       -0.1659
@<TRIPOS>BOND
     1     4     5    1
     2     5     6   ar
     3     6     3    1
     4     3     2    1
     5     2     1    1
     6     1    20    1
     7    20    21    1
     8    21    22    1
     9    22    23    1
    10    24    23    1
    11    24    25    1
    12    25    26    1
    13    26    28    1
    14    28    29   ar
    15    29    30   ar
    16    30    31   ar
    17    31    34    1
    18    34    35    1
    19    34    36    1
    20    34    37    1
    21    31    32   ar
    22    32    33   ar
    23    24    27    1
    24     6     7   ar
    25     7     8   ar
    26     8     9   ar
    27     9    10    1
    28    10    11   ar
    29    11    12   ar
    30    12    13   ar
    31    13    14   ar
    32    14    15   ar
    33    15    16    1
    34    16    17    1
    35    16    18    1
    36    16    19    1
    37     9     5   ar
    38    15    10   ar
    39    27    21    1
    40    26    24    1
    41    33    28   ar
@<TRIPOS>MOLECULE
*****
 37 41 0 0 0
SMALL
GASTEIGER

@<TRIPOS>ATOM
      1 C          64.5997   88.4113   14.5943 C.3     1  UNL1        0.0294
      2 C          63.5928   89.5028   14.3826 C.3     1  UNL1        0.0666
      3 S          63.6083   90.3015   13.1131 S.3     1  UNL1       -0.0756
      4 C          64.2169   91.9672   10.3736 C.3     1  UNL1        0.1340
      5 N          64.7896   92.2594   11.7289 N.ar    1  UNL1       -0.2884
      6 C          64.5099   91.4938   12.9880 C.ar    1  UNL1        0.1932
      7 N          65.2900   92.1296   14.1003 N.ar    1  UNL1       -0.1221
      8 N          66.0520   93.2883   13.5285 N.ar    1  UNL1       -0.1282
      9 C          65.7427   93.3686   12.0628 C.ar    1  UNL1        0.1682
     10 C          66.2904   94.3803   11.1003 C.ar    1  UNL1        0.0576
     11 C          65.7896   95.7938   11.1323 C.ar    1  UNL1        0.0061
     12 C          66.3373   96.8055   10.1697 C.ar    1  UNL1        0.0208
     13 C          67.3858   96.4035    9.1751 C.ar    1  UNL1        0.0988
     14 N          67.8867   94.9900    9.1432 N.ar    1  UNL1       -0.2398
     15 C          67.3389   93.9783   10.1058 C.ar    1  UNL1        0.1555
     16 C          67.8397   92.5648   10.0738 C.3     1  UNL1        0.4349
     17 F          68.3406   91.1512   10.0418 F       1  UNL1       -0.1644
     18 F          67.7723   92.5748    8.5754 F       1  UNL1       -0.1644
     19 F          67.9072   92.5548   11.5723 F       1  UNL1       -0.1644
     20 C          64.1767   87.1090   15.2068 C.3     1  UNL1        0.0730
     21 N          64.0390   85.8864   14.3488 N.3     1  UNL1       -0.2726
     22 C          64.6006   84.5289   14.6518 C.3     1  UNL1        0.0721
     23 C          64.2242   83.6101   13.5274 C.3     1  UNL1        0.0190
     24 C          63.4301   84.3998   12.5295 C.3     1  UNL1        0.0201
     25 C          63.2102   83.2664   11.5719 C.3     1  UNL1        0.0061
     26 C          62.6486   84.6239   11.2689 C.3     1  UNL1        0.0237
     27 C          63.3156   85.8066   13.0371 C.3     1  UNL1        0.0724
     28 C          61.8732   85.5371   10.3662 C.ar    1  UNL1       -0.0225
     29 C          60.9772   86.5876   10.9523 C.ar    1  UNL1       -0.0043
     30 C          60.2018   87.5008   10.0496 C.ar    1  UNL1        0.0035
     31 C          60.3224   87.3634    8.5608 C.ar    1  UNL1        0.0714
     32 C          61.2184   86.3128    7.9747 C.ar    1  UNL1        0.0035
     33 C          61.9938   85.3996    8.8774 C.ar    1  UNL1       -0.0043
     34 C          59.5471   88.2765    7.6581 C.3     1  UNL1        0.4186
     35 F          58.7716   89.1897    6.7553 F       1  UNL1       -0.1659
     36 F          60.3712   89.4391    8.1262 F       1  UNL1       -0.1659
     37 F          58.7229   87.1140    7.1900 F       1  UNL1       -0.1659
@<TRIPOS>BOND
     1     4     5    1
     2     5     6   ar
     3     6     3    1
     4     3     2    1
     5     2     1    1
     6     1    20    1
     7    20    21    1
     8    21    22    1
     9    22    23    1
    10    24    23    1
    11    24    25    1
    12    25    26    1
    13    26    28    1
    14    28    29   ar
    15    29    30   ar
    16    30    31   ar
    17    31    34    1
    18    34    35    1
    19    34    36    1
    20    34    37    1
    21    31    32   ar
    22    32    33   ar
    23    24    27    1
    24     6     7   ar
    25     7     8   ar
    26     8     9   ar
    27     9    10    1
    28    10    11   ar
    29    11    12   ar
    30    12    13   ar
    31    13    14   ar
    32    14    15   ar
    33    15    16    1
    34    16    17    1
    35    16    18    1
    36    16    19    1
    37     9     5   ar
    38    15    10   ar
    39    27    21    1
    40    26    24    1
    41    33    28   ar
@<TRIPOS>MOLECULE
*****
 37 41 0 0 0
SMALL
GASTEIGER

@<TRIPOS>ATOM
      1 C          64.4096   88.6845   14.3868 C.3     1  UNL1        0.0294
      2 C          63.8349   89.9117   15.0300 C.3     1  UNL1        0.0666
      3 S          63.6609   91.1673   14.2280 S.3     1  UNL1       -0.0756
      4 C          64.2477   91.4886   11.0339 C.3     1  UNL1        0.1340
      5 N          65.1245   91.9839   12.1456 N.ar    1  UNL1       -0.2884
      6 C          64.8548   91.8362   13.6138 C.ar    1  UNL1        0.1932
      7 N          65.9885   92.4750   14.3599 N.ar    1  UNL1       -0.1221
      8 N          66.9589   93.0174   13.3529 N.ar    1  UNL1       -0.1282
      9 C          66.4250   92.7140   11.9844 C.ar    1  UNL1        0.1682
     10 C          67.0770   93.0768   10.6831 C.ar    1  UNL1        0.0576
     11 C          67.9549   92.0835    9.9815 C.ar    1  UNL1        0.0061
     12 C          68.6070   92.4463    8.6802 C.ar    1  UNL1        0.0208
     13 C          68.3809   93.8027    8.0807 C.ar    1  UNL1        0.0988
     14 N          67.5029   94.7960    8.7824 N.ar    1  UNL1       -0.2398
     15 C          66.8509   94.4331   10.0836 C.ar    1  UNL1        0.1555
     16 C          65.9730   95.4265   10.7853 C.3     1  UNL1        0.4349
     17 F          65.0950   96.4199   11.4870 F       1  UNL1       -0.1644
     18 F          67.1891   96.1357   11.3030 F       1  UNL1       -0.1644
     19 F          64.7568   94.7173   10.2676 F       1  UNL1       -0.1644
     20 C          64.3503   87.3662   15.0999 C.3     1  UNL1        0.0730
     21 N          64.1119   86.1042   14.3249 N.3     1  UNL1       -0.2726
     22 C          64.6088   84.7372   14.6914 C.3     1  UNL1        0.0721
     23 C          64.1387   83.7759   13.6403 C.3     1  UNL1        0.0190
     24 C          63.3513   84.5488   12.6241 C.3     1  UNL1        0.0201
     25 C          63.0319   83.3746   11.7471 C.3     1  UNL1        0.0061
     26 C          62.5350   84.7416   11.3805 C.3     1  UNL1        0.0237
     27 C          63.3347   85.9878   13.0472 C.3     1  UNL1        0.0724
     28 C          61.7768   85.6422   10.4509 C.ar    1  UNL1       -0.0225
     29 C          61.8830   85.4493    8.9672 C.ar    1  UNL1       -0.0043
     30 C          61.1249   86.3498    8.0376 C.ar    1  UNL1        0.0035
     31 C          60.2605   87.4433    8.5918 C.ar    1  UNL1        0.0714
     32 C          60.1542   87.6362   10.0756 C.ar    1  UNL1        0.0035
     33 C          60.9124   86.7356   11.0051 C.ar    1  UNL1       -0.0043
     34 C          59.5023   88.3439    7.6622 C.3     1  UNL1        0.4186
     35 F          58.7441   89.2445    6.7326 F       1  UNL1       -0.1659
     36 F          58.8644   87.1465    7.0225 F       1  UNL1       -0.1659
     37 F          60.1402   89.5413    8.3020 F       1  UNL1       -0.1659
@<TRIPOS>BOND
     1     4     5    1
     2     5     6   ar
     3     6     3    1
     4     3     2    1
     5     2     1    1
     6     1    20    1
     7    20    21    1
     8    21    22    1
     9    22    23    1
    10    24    23    1
    11    24    25    1
    12    25    26    1
    13    26    28    1
    14    28    29   ar
    15    29    30   ar
    16    30    31   ar
    17    31    34    1
    18    34    35    1
    19    34    36    1
    20    34    37    1
    21    31    32   ar
    22    32    33   ar
    23    24    27    1
    24     6     7   ar
    25     7     8   ar
    26     8     9   ar
    27     9    10    1
    28    10    11   ar
    29    11    12   ar
    30    12    13   ar
    31    13    14   ar
    32    14    15   ar
    33    15    16    1
    34    16    17    1
    35    16    18    1
    36    16    19    1
    37     9     5   ar
    38    15    10   ar
    39    27    21    1
    40    26    24    1
    41    33    28   ar
@<TRIPOS>MOLECULE
*****
 37 41 0 0 0
SMALL
GASTEIGER

@<TRIPOS>ATOM
      1 C          61.1185   87.2957    9.8129 C.3     1  UNL1        0.0294
      2 C          60.4316   88.5095    9.2606 C.3     1  UNL1        0.0666
      3 S          60.2810   89.7373   10.1090 S.3     1  UNL1       -0.0756
      4 C          63.1578   91.2743   10.0036 C.3     1  UNL1        0.1340
      5 N          62.5250   90.6703   11.2221 N.ar    1  UNL1       -0.2884
      6 C          61.2027   89.9638   11.2706 C.ar    1  UNL1        0.1932
      7 N          60.9639   89.5235   12.6845 N.ar    1  UNL1       -0.1221
      8 N          62.1386   89.9579   13.5099 N.ar    1  UNL1       -0.1282
      9 C          63.1035   90.6667   12.6062 C.ar    1  UNL1        0.1682
     10 C          64.4163   91.2665   13.0147 C.ar    1  UNL1        0.0576
     11 C          65.1297   92.2093   12.0916 C.ar    1  UNL1        0.0061
     12 C          66.4425   92.8091   12.5001 C.ar    1  UNL1        0.0208
     13 C          67.0417   92.4661   13.8318 C.ar    1  UNL1        0.0988
     14 N          66.3283   91.5233   14.7549 N.ar    1  UNL1       -0.2398
     15 C          65.0155   90.9235   14.3463 C.ar    1  UNL1        0.1555
     16 C          64.3020   89.9807   15.2694 C.3     1  UNL1        0.4349
     17 F          63.5886   89.0379   16.1925 F       1  UNL1       -0.1644
     18 F          64.8847   88.8140   14.5282 F       1  UNL1       -0.1644
     19 F          63.7194   91.1473   16.0106 F       1  UNL1       -0.1644
     20 C          61.9799   86.4508    8.9218 C.3     1  UNL1        0.0730
     21 N          62.7119   85.2698    9.4869 N.3     1  UNL1       -0.2726
     22 C          63.3149   84.1459    8.6973 C.3     1  UNL1        0.0721
     23 C          63.9452   83.1869    9.6632 C.3     1  UNL1        0.0190
     24 C          63.7317   83.7179   11.0497 C.3     1  UNL1        0.0201
     25 C          64.4374   82.5989   11.7566 C.3     1  UNL1        0.0061
     26 C          63.8344   83.7227   12.5462 C.3     1  UNL1        0.0237
     27 C          62.9695   85.0053   10.9407 C.3     1  UNL1        0.0724
     28 C          63.5456   84.3744   13.8660 C.ar    1  UNL1       -0.0225
     29 C          64.5362   85.3288   14.4640 C.ar    1  UNL1       -0.0043
     30 C          64.2474   85.9804   15.7838 C.ar    1  UNL1        0.0035
     31 C          62.9679   85.6776   16.5057 C.ar    1  UNL1        0.0714
     32 C          61.9772   84.7231   15.9077 C.ar    1  UNL1        0.0035
     33 C          62.2660   84.0715   14.5879 C.ar    1  UNL1       -0.0043
     34 C          62.6790   86.3292   17.8255 C.3     1  UNL1        0.4186
     35 F          62.3902   86.9808   19.1454 F       1  UNL1       -0.1659
     36 F          61.3088   86.7012   17.3419 F       1  UNL1       -0.1659
     37 F          64.0493   85.9571   18.3091 F       1  UNL1       -0.1659
@<TRIPOS>BOND
     1     4     5    1
     2     5     6   ar
     3     6     3    1
     4     3     2    1
     5     2     1    1
     6     1    20    1
     7    20    21    1
     8    21    22    1
     9    22    23    1
    10    24    23    1
    11    24    25    1
    12    25    26    1
    13    26    28    1
    14    28    29   ar
    15    29    30   ar
    16    30    31   ar
    17    31    34    1
    18    34    35    1
    19    34    36    1
    20    34    37    1
    21    31    32   ar
    22    32    33   ar
    23    24    27    1
    24     6     7   ar
    25     7     8   ar
    26     8     9   ar
    27     9    10    1
    28    10    11   ar
    29    11    12   ar
    30    12    13   ar
    31    13    14   ar
    32    14    15   ar
    33    15    16    1
    34    16    17    1
    35    16    18    1
    36    16    19    1
    37     9     5   ar
    38    15    10   ar
    39    27    21    1
    40    26    24    1
    41    33    28   ar
@<TRIPOS>MOLECULE
*****
 37 41 0 0 0
SMALL
GASTEIGER

@<TRIPOS>ATOM
      1 C          64.2134   83.5124   14.3189 C.3     1  UNL1        0.0294
      2 C          63.1638   83.1208   13.3213 C.3     1  UNL1        0.0666
      3 S          63.5407   82.8891   11.8881 S.3     1  UNL1       -0.0756
      4 C          61.8649   85.6474   12.3708 C.3     1  UNL1        0.1340
      5 N          62.5045   85.2181   11.0837 N.ar    1  UNL1       -0.2884
      6 C          63.2747   83.9502   10.8618 C.ar    1  UNL1        0.1932
      7 N          63.7324   83.9298    9.4335 N.ar    1  UNL1       -0.1221
      8 N          63.2450   85.1850    8.7726 N.ar    1  UNL1       -0.1282
      9 C          62.4861   85.9813    9.7924 C.ar    1  UNL1        0.1682
     10 C          61.8249   87.3078    9.5616 C.ar    1  UNL1        0.0576
     11 C          62.3027   88.5226   10.3004 C.ar    1  UNL1        0.0061
     12 C          61.6415   89.8491   10.0696 C.ar    1  UNL1        0.0208
     13 C          60.5025   89.9607    9.0998 C.ar    1  UNL1        0.0988
     14 N          60.0248   88.7458    8.3609 N.ar    1  UNL1       -0.2398
     15 C          60.6860   87.4194    8.5919 C.ar    1  UNL1        0.1555
     16 C          60.2083   86.2045    7.8530 C.3     1  UNL1        0.4349
     17 F          59.7305   84.9897    7.1141 F       1  UNL1       -0.1644
     18 F          61.5261   86.1189    7.1417 F       1  UNL1       -0.1644
     19 F          58.8904   86.2902    8.5643 F       1  UNL1       -0.1644
     20 C          64.8119   84.8872   14.2775 C.3     1  UNL1        0.0730
     21 N          64.2336   85.9827   15.1233 N.3     1  UNL1       -0.2726
     22 C          63.4683   85.7999   16.4003 C.3     1  UNL1        0.0721
     23 C          63.0808   87.1576   16.9068 C.3     1  UNL1        0.0190
     24 C          63.6066   88.1795   15.9428 C.3     1  UNL1        0.0201
     25 C          63.0865   89.3758   16.6832 C.3     1  UNL1        0.0061
     26 C          63.8518   89.5586   15.4061 C.3     1  UNL1        0.0237
     27 C          64.3191   87.4533   14.8405 C.3     1  UNL1        0.0724
     28 C          64.4352   90.4603   14.3590 C.ar    1  UNL1       -0.0225
     29 C          63.6913   90.7032   13.0793 C.ar    1  UNL1       -0.0043
     30 C          64.2747   91.6049   12.0322 C.ar    1  UNL1        0.0035
     31 C          65.6020   92.2637   12.2647 C.ar    1  UNL1        0.0714
     32 C          66.3460   92.0208   13.5444 C.ar    1  UNL1        0.0035
     33 C          65.7626   91.1191   14.5915 C.ar    1  UNL1       -0.0043
     34 C          66.1855   93.1654   11.2176 C.3     1  UNL1        0.4186
     35 F          66.7689   94.0672   10.1704 F       1  UNL1       -0.1659
     36 F          66.4500   91.9769   10.3415 F       1  UNL1       -0.1659
     37 F          65.9209   94.3539   12.0936 F       1  UNL1       -0.1659
@<TRIPOS>BOND
     1     4     5    1
     2     5     6   ar
     3     6     3    1
     4     3     2    1
     5     2     1    1
     6     1    20    1
     7    20    21    1
     8    21    22    1
     9    22    23    1
    10    24    23    1
    11    24    25    1
    12    25    26    1
    13    26    28    1
    14    28    29   ar
    15    29    30   ar
    16    30    31   ar
    17    31    34    1
    18    34    35    1
    19    34    36    1
    20    34    37    1
    21    31    32   ar
    22    32    33   ar
    23    24    27    1
    24     6     7   ar
    25     7     8   ar
    26     8     9   ar
    27     9    10    1
    28    10    11   ar
    29    11    12   ar
    30    12    13   ar
    31    13    14   ar
    32    14    15   ar
    33    15    16    1
    34    16    17    1
    35    16    18    1
    36    16    19    1
    37     9     5   ar
    38    15    10   ar
    39    27    21    1
    40    26    24    1
    41    33    28   ar
@<TRIPOS>MOLECULE
*****
 37 41 0 0 0
SMALL
GASTEIGER

@<TRIPOS>ATOM
      1 C          61.7522   87.8640    9.5441 C.3     1  UNL1        0.0294
      2 C          60.9020   88.2541   10.7168 C.3     1  UNL1        0.0666
      3 S          60.9008   89.6729   11.2033 S.3     1  UNL1       -0.0756
      4 C          62.8222   89.9815   13.8230 C.3     1  UNL1        0.1340
      5 N          63.0687   90.5863   12.4727 N.ar    1  UNL1       -0.2884
      6 C          62.1855   90.4444   11.2685 C.ar    1  UNL1        0.1932
      7 N          62.8126   91.2095   10.1410 N.ar    1  UNL1       -0.1221
      8 N          64.0834   91.8242   10.6482 N.ar    1  UNL1       -0.1282
      9 C          64.2417   91.4391   12.0893 C.ar    1  UNL1        0.1682
     10 C          65.3741   91.8368   12.9890 C.ar    1  UNL1        0.0576
     11 C          65.4169   91.3420   14.4044 C.ar    1  UNL1        0.0061
     12 C          66.5493   91.7397   15.3041 C.ar    1  UNL1        0.0208
     13 C          67.6389   92.6324   14.7883 C.ar    1  UNL1        0.0988
     14 N          67.5961   93.1273   13.3730 N.ar    1  UNL1       -0.2398
     15 C          66.4636   92.7295   12.4733 C.ar    1  UNL1        0.1555
     16 C          66.4209   93.2243   11.0579 C.3     1  UNL1        0.4349
     17 F          66.3781   93.7192    9.6426 F       1  UNL1       -0.1644
     18 F          67.2188   92.0331   10.6173 F       1  UNL1       -0.1644
     19 F          65.6229   94.4156   11.4986 F       1  UNL1       -0.1644
     20 C          61.6585   86.4783    8.9776 C.3     1  UNL1        0.0730
     21 N          62.4870   85.3721    9.5606 N.3     1  UNL1       -0.2726
     22 C          63.0963   84.2319    8.7999 C.3     1  UNL1        0.0721
     23 C          63.8374   83.3670    9.7759 C.3     1  UNL1        0.0190
     24 C          63.6862   83.9727   11.1399 C.3     1  UNL1        0.0201
     25 C          64.4944   82.9359   11.8623 C.3     1  UNL1        0.0061
     26 C          63.8851   84.0760   12.6230 C.3     1  UNL1        0.0237
     27 C          62.8516   85.2119   11.0068 C.3     1  UNL1        0.0724
     28 C          63.6481   84.7940   13.9185 C.ar    1  UNL1       -0.0225
     29 C          64.4108   86.0470   14.2320 C.ar    1  UNL1       -0.0043
     30 C          64.1738   86.7650   15.5275 C.ar    1  UNL1        0.0035
     31 C          63.1741   86.2299   16.5095 C.ar    1  UNL1        0.0714
     32 C          62.4115   84.9769   16.1961 C.ar    1  UNL1        0.0035
     33 C          62.6485   84.2589   14.9006 C.ar    1  UNL1       -0.0043
     34 C          62.9372   86.9479   17.8050 C.3     1  UNL1        0.4186
     35 F          62.7002   87.6658   19.1006 F       1  UNL1       -0.1659
     36 F          63.3951   88.2311   17.1777 F       1  UNL1       -0.1659
     37 F          62.4792   85.6647   18.4324 F       1  UNL1       -0.1659
@<TRIPOS>BOND
     1     4     5    1
     2     5     6   ar
     3     6     3    1
     4     3     2    1
     5     2     1    1
     6     1    20    1
     7    20    21    1
     8    21    22    1
     9    22    23    1
    10    24    23    1
    11    24    25    1
    12    25    26    1
    13    26    28    1
    14    28    29   ar
    15    29    30   ar
    16    30    31   ar
    17    31    34    1
    18    34    35    1
    19    34    36    1
    20    34    37    1
    21    31    32   ar
    22    32    33   ar
    23    24    27    1
    24     6     7   ar
    25     7     8   ar
    26     8     9   ar
    27     9    10    1
    28    10    11   ar
    29    11    12   ar
    30    12    13   ar
    31    13    14   ar
    32    14    15   ar
    33    15    16    1
    34    16    17    1
    35    16    18    1
    36    16    19    1
    37     9     5   ar
    38    15    10   ar
    39    27    21    1
    40    26    24    1
    41    33    28   ar
@<TRIPOS>MOLECULE
*****
 37 41 0 0 0
SMALL
GASTEIGER

@<TRIPOS>ATOM
      1 C          61.2994   89.3506   10.0271 C.3     1  UNL1        0.0294
      2 C          61.2645   88.0668    9.2521 C.3     1  UNL1        0.0666
      3 S          62.3296   87.0324    9.4661 S.3     1  UNL1       -0.0756
      4 C          63.3198   83.9282    9.6468 C.3     1  UNL1        0.1340
      5 N          62.7546   84.7405   10.7741 N.ar    1  UNL1       -0.2884
      6 C          62.2995   86.1673   10.6911 C.ar    1  UNL1        0.1932
      7 N          61.8089   86.5772   12.0480 N.ar    1  UNL1       -0.1221
      8 N          61.9608   85.4036   12.9698 N.ar    1  UNL1       -0.1282
      9 C          62.5454   84.2684   12.1825 C.ar    1  UNL1        0.1682
     10 C          62.8645   82.9013   12.7109 C.ar    1  UNL1        0.0576
     11 C          62.0689   81.7153   12.2522 C.ar    1  UNL1        0.0061
     12 C          62.3881   80.3482   12.7805 C.ar    1  UNL1        0.0208
     13 C          63.5030   80.1672   13.7676 C.ar    1  UNL1        0.0988
     14 N          64.2986   81.3531   14.2263 N.ar    1  UNL1       -0.2398
     15 C          63.9794   82.7202   13.6979 C.ar    1  UNL1        0.1555
     16 C          64.7751   83.9062   14.1566 C.3     1  UNL1        0.4349
     17 F          65.5707   85.0921   14.6153 F       1  UNL1       -0.1644
     18 F          64.1372   83.8103   15.5108 F       1  UNL1       -0.1644
     19 F          65.4129   84.0020   12.8024 F       1  UNL1       -0.1644
     20 C          62.1288   90.5003    9.5371 C.3     1  UNL1        0.0730
     21 N          63.1835   91.0953   10.4224 N.3     1  UNL1       -0.2726
     22 C          64.1038   92.2235   10.0616 C.3     1  UNL1        0.0721
     23 C          64.9920   92.4919   11.2401 C.3     1  UNL1        0.0190
     24 C          64.6207   91.5296   12.3292 C.3     1  UNL1        0.0201
     25 C          65.6308   92.0207   13.3235 C.3     1  UNL1        0.0061
     26 C          64.7104   90.8925   13.6843 C.3     1  UNL1        0.0237
     27 C          63.5029   90.6664   11.8238 C.3     1  UNL1        0.0724
     28 C          64.2309   89.8733   14.6748 C.ar    1  UNL1       -0.0225
     29 C          63.5496   90.3156   15.9358 C.ar    1  UNL1       -0.0043
     30 C          63.0700   89.2964   16.9264 C.ar    1  UNL1        0.0035
     31 C          63.2718   87.8349   16.6559 C.ar    1  UNL1        0.0714
     32 C          63.9531   87.3926   15.3949 C.ar    1  UNL1        0.0035
     33 C          64.4327   88.4118   14.4043 C.ar    1  UNL1       -0.0043
     34 C          62.7922   86.8157   17.6465 C.3     1  UNL1        0.4186
     35 F          62.3127   85.7965   18.6371 F       1  UNL1       -0.1659
     36 F          62.5851   85.8316   16.5336 F       1  UNL1       -0.1659
     37 F          62.9994   87.7998   18.7594 F       1  UNL1       -0.1659
@<TRIPOS>BOND
     1     4     5    1
     2     5     6   ar
     3     6     3    1
     4     3     2    1
     5     2     1    1
     6     1    20    1
     7    20    21    1
     8    21    22    1
     9    22    23    1
    10    24    23    1
    11    24    25    1
    12    25    26    1
    13    26    28    1
    14    28    29   ar
    15    29    30   ar
    16    30    31   ar
    17    31    34    1
    18    34    35    1
    19    34    36    1
    20    34    37    1
    21    31    32   ar
    22    32    33   ar
    23    24    27    1
    24     6     7   ar
    25     7     8   ar
    26     8     9   ar
    27     9    10    1
    28    10    11   ar
    29    11    12   ar
    30    12    13   ar
    31    13    14   ar
    32    14    15   ar
    33    15    16    1
    34    16    17    1
    35    16    18    1
    36    16    19    1
    37     9     5   ar
    38    15    10   ar
    39    27    21    1
    40    26    24    1
    41    33    28   ar
@<TRIPOS>MOLECULE
*****
 37 41 0 0 0
SMALL
GASTEIGER

@<TRIPOS>ATOM
      1 C          63.3163   85.7113   16.3650 C.3     1  UNL1        0.0294
      2 C          63.3497   86.9918   17.1456 C.3     1  UNL1        0.0666
      3 S          62.4933   88.1492   16.7248 S.3     1  UNL1       -0.0756
      4 C          64.0380   88.3322   13.8560 C.3     1  UNL1        0.1340
      5 N          63.8364   89.4615   14.8224 N.ar    1  UNL1       -0.2884
      6 C          63.1264   89.3774   16.1411 C.ar    1  UNL1        0.1932
      7 N          63.1606   90.7371   16.7735 N.ar    1  UNL1       -0.1221
      8 N          63.8918   91.6616   15.8458 N.ar    1  UNL1       -0.1282
      9 C          64.3095   90.8732   14.6399 C.ar    1  UNL1        0.1682
     10 C          65.0671   91.4035   13.4589 C.ar    1  UNL1        0.0576
     11 C          66.4694   91.9070   13.6320 C.ar    1  UNL1        0.0061
     12 C          67.2271   92.4373   12.4510 C.ar    1  UNL1        0.0208
     13 C          66.5823   92.4641   11.0969 C.ar    1  UNL1        0.0988
     14 N          65.1800   91.9605   10.9237 N.ar    1  UNL1       -0.2398
     15 C          64.4224   91.4303   12.1048 C.ar    1  UNL1        0.1555
     16 C          63.0201   90.9268   11.9317 C.3     1  UNL1        0.4349
     17 F          61.6178   90.4233   11.7585 F       1  UNL1       -0.1644
     18 F          62.5067   92.0763   12.7471 F       1  UNL1       -0.1644
     19 F          63.5335   89.7773   11.1162 F       1  UNL1       -0.1644
     20 C          64.4868   85.3225   15.5113 C.3     1  UNL1        0.0730
     21 N          64.3009   84.3574   14.3782 N.3     1  UNL1       -0.2726
     22 C          64.7704   82.9331   14.3472 C.3     1  UNL1        0.0721
     23 C          64.3725   82.3426   13.0270 C.3     1  UNL1        0.0190
     24 C          63.6572   83.4019   12.2420 C.3     1  UNL1        0.0201
     25 C          63.3976   82.5528   11.0331 C.3     1  UNL1        0.0061
     26 C          62.9281   83.9771   11.0641 C.3     1  UNL1        0.0237
     27 C          63.6129   84.6472   13.0771 C.3     1  UNL1        0.0724
     28 C          62.2361   85.1315   10.4019 C.ar    1  UNL1       -0.0225
     29 C          62.3195   85.3026    8.9140 C.ar    1  UNL1       -0.0043
     30 C          61.6275   86.4570    8.2518 C.ar    1  UNL1        0.0035
     31 C          60.8522   87.4403    9.0775 C.ar    1  UNL1        0.0714
     32 C          60.7688   87.2693   10.5654 C.ar    1  UNL1        0.0035
     33 C          61.4608   86.1149   11.2276 C.ar    1  UNL1       -0.0043
     34 C          60.1602   88.5947    8.4154 C.3     1  UNL1        0.4186
     35 F          59.4682   89.7492    7.7532 F       1  UNL1       -0.1659
     36 F          59.4017   87.6394    7.5425 F       1  UNL1       -0.1659
     37 F          60.9187   89.5501    9.2883 F       1  UNL1       -0.1659
@<TRIPOS>BOND
     1     4     5    1
     2     5     6   ar
     3     6     3    1
     4     3     2    1
     5     2     1    1
     6     1    20    1
     7    20    21    1
     8    21    22    1
     9    22    23    1
    10    24    23    1
    11    24    25    1
    12    25    26    1
    13    26    28    1
    14    28    29   ar
    15    29    30   ar
    16    30    31   ar
    17    31    34    1
    18    34    35    1
    19    34    36    1
    20    34    37    1
    21    31    32   ar
    22    32    33   ar
    23    24    27    1
    24     6     7   ar
    25     7     8   ar
    26     8     9   ar
    27     9    10    1
    28    10    11   ar
    29    11    12   ar
    30    12    13   ar
    31    13    14   ar
    32    14    15   ar
    33    15    16    1
    34    16    17    1
    35    16    18    1
    36    16    19    1
    37     9     5   ar
    38    15    10   ar
    39    27    21    1
    40    26    24    1
    41    33    28   ar
