@<TRIPOS>MOLECULE
*****
 33 37 0 0 0
SMALL
GASTEIGER

@<TRIPOS>ATOM
      1 C          72.4681   76.6854   12.9220 C.ar    1  UNL1        0.1317
      2 C          73.6123   76.6125   11.9548 C.ar    1  UNL1        0.0346
      3 C          73.6328   77.5041   10.7487 C.ar    1  UNL1        0.0121
      4 C          72.5092   78.4687   10.5099 C.ar    1  UNL1        0.1076
      5 C          71.3650   78.5416   11.4772 C.ar    1  UNL1        0.1080
      6 N          71.3445   77.6500   12.6832 N.ar    1  UNL1       -0.2289
      7 C          71.7615   72.2966   18.1330 C.3     1  UNL1        0.0375
      8 C          72.9885   72.9803   18.6594 C.3     1  UNL1        0.1423
      9 O          73.3872   74.0396   17.6750 O.3     1  UNL1       -0.3584
     10 C          72.4066   74.0105   16.5402 C.3     1  UNL1        0.0961
     11 C          73.4795   75.0485   16.3930 C.3     1  UNL1        0.0487
     12 C          73.4999   75.9400   15.1870 C.3     1  UNL1        0.0946
     13 N          72.4476   75.7937   14.1281 N.pl3   1  UNL1       -0.2931
     14 C          71.3748   74.7558   14.2753 C.3     1  UNL1        0.0946
     15 C          71.3543   73.8642   15.4814 C.3     1  UNL1        0.0487
     16 C          71.4019   72.9333   16.8234 C.3     1  UNL1        0.0302
     17 C          71.0237   71.1734   18.7993 C.3     1  UNL1        0.0443
     18 O          69.9535   68.8135   18.6119 O.co2   1  UNL1       -0.5492
     19 C          70.9537   69.8274   18.1411 C.2     1  UNL1        0.0504
     20 O          71.8838   69.4952   17.0121 O.co2   1  UNL1       -0.5492
     21 C          72.5297   79.3603    9.3039 C.2     1  UNL1        0.3767
     22 N          73.0661   79.0002    7.9502 N.2     1  UNL1       -0.0308
     23 C          72.8853   80.1859    7.0495 C.2     1  UNL1        0.2320
     24 C          73.2271   80.4116    5.6065 C.2     1  UNL1        0.0537
     25 C          72.9208   81.7303    4.9605 C.2     1  UNL1        0.0714
     26 C          72.2726   82.8233    5.7576 C.2     1  UNL1       -0.0133
     27 C          71.9308   82.5976    7.2006 C.3     1  UNL1        0.1037
     28 C          72.2371   81.2790    7.8465 C.2     1  UNL1        0.2178
     29 N          72.0173   80.7687    9.2398 N.2     1  UNL1       -0.0347
     30 C          73.2626   81.9560    3.5175 C.3     1  UNL1        0.4184
     31 F          73.6044   82.1817    2.0746 F       1  UNL1       -0.1659
     32 F          72.8955   83.4037    3.6570 F       1  UNL1       -0.1659
     33 F          73.6296   80.5083    3.3781 F       1  UNL1       -0.1659
@<TRIPOS>UNITY_ATOM_ATTR
18 1
charge -1
@<TRIPOS>BOND
     1    18    19   ar
     2    19    20   ar
     3    19    17    1
     4    17     7    1
     5     7     8    1
     6     8     9    1
     7     9    10    1
     8    10    11    1
     9    11    12    1
    10    12    13    1
    11    13     1    1
    12     1     2   ar
    13     2     3   ar
    14     3     4   ar
    15     4    21    1
    16    21    22    2
    17    22    23    1
    18    23    24    2
    19    24    25    1
    20    25    30    1
    21    30    31    1
    22    30    32    1
    23    30    33    1
    24    25    26    2
    25    26    27    1
    26    27    28    1
    27    28    29    2
    28     4     5   ar
    29     5     6   ar
    30    13    14    1
    31    14    15    1
    32    10    16    1
    33    16     7    1
    34    15    10    1
    35     6     1   ar
    36    29    21    1
    37    28    23    1
@<TRIPOS>MOLECULE
*****
 33 37 0 0 0
SMALL
GASTEIGER

@<TRIPOS>ATOM
      1 C          64.3761   89.0383   13.2419 C.ar    1  UNL1        0.1317
      2 C          64.7583   88.2341   14.4491 C.ar    1  UNL1        0.0346
      3 C          64.3140   86.8065   14.5707 C.ar    1  UNL1        0.0121
      4 C          63.4875   86.1832   13.4852 C.ar    1  UNL1        0.1076
      5 C          63.1053   86.9874   12.2780 C.ar    1  UNL1        0.1080
      6 N          63.5496   88.4149   12.1564 N.ar    1  UNL1       -0.2289
      7 C          66.1847   95.5209   11.9693 C.3     1  UNL1        0.0375
      8 C          66.6004   95.5144   13.4106 C.3     1  UNL1        0.1423
      9 O          66.3063   94.1546   13.9716 O.3     1  UNL1       -0.3584
     10 C          65.7089   93.3208   12.8771 C.3     1  UNL1        0.0961
     11 C          65.8467   92.6014   14.1860 C.3     1  UNL1        0.0487
     12 C          65.4024   91.1739   14.3076 C.3     1  UNL1        0.0946
     13 N          64.8203   90.4658   13.1203 N.pl3   1  UNL1       -0.2931
     14 C          64.6826   91.1853   11.8113 C.3     1  UNL1        0.0946
     15 C          65.1268   92.6128   11.6897 C.3     1  UNL1        0.0487
     16 C          65.6338   94.1653   11.6396 C.3     1  UNL1        0.0302
     17 C          66.2999   96.6796   11.0238 C.3     1  UNL1        0.0443
     18 O          65.3829   96.8557    8.5993 O.co2   1  UNL1       -0.5492
     19 C          66.4613   96.4342    9.5528 C.2     1  UNL1        0.0504
     20 O          67.7012   95.7671    9.0354 O.co2   1  UNL1       -0.5492
     21 C          63.0432   84.7557   13.6067 C.2     1  UNL1        0.3767
     22 N          61.6401   84.2871   13.8552 N.2     1  UNL1       -0.0308
     23 C          61.6538   82.7880   13.9032 C.2     1  UNL1        0.2320
     24 C          60.5632   81.7807   14.1179 C.2     1  UNL1        0.0537
     25 C          60.8843   80.3154   14.1138 C.2     1  UNL1        0.0714
     26 C          62.2958   79.8575   13.8951 C.2     1  UNL1       -0.0133
     27 C          63.3863   80.8647   13.6805 C.3     1  UNL1        0.1037
     28 C          63.0653   82.3300   13.6845 C.2     1  UNL1        0.2178
     29 N          63.9241   83.5461   13.5013 N.2     1  UNL1       -0.0347
     30 C          59.7937   79.3081   14.3285 C.3     1  UNL1        0.4184
     31 F          58.7032   78.3008   14.5432 F       1  UNL1       -0.1659
     32 F          60.7756   78.1969   14.1023 F       1  UNL1       -0.1659
     33 F          58.8119   80.4193   14.5547 F       1  UNL1       -0.1659
@<TRIPOS>UNITY_ATOM_ATTR
18 1
charge -1
@<TRIPOS>BOND
     1    18    19   ar
     2    19    20   ar
     3    19    17    1
     4    17     7    1
     5     7     8    1
     6     8     9    1
     7     9    10    1
     8    10    11    1
     9    11    12    1
    10    12    13    1
    11    13     1    1
    12     1     2   ar
    13     2     3   ar
    14     3     4   ar
    15     4    21    1
    16    21    22    2
    17    22    23    1
    18    23    24    2
    19    24    25    1
    20    25    30    1
    21    30    31    1
    22    30    32    1
    23    30    33    1
    24    25    26    2
    25    26    27    1
    26    27    28    1
    27    28    29    2
    28     4     5   ar
    29     5     6   ar
    30    13    14    1
    31    14    15    1
    32    10    16    1
    33    16     7    1
    34    15    10    1
    35     6     1   ar
    36    29    21    1
    37    28    23    1
@<TRIPOS>MOLECULE
*****
 33 37 0 0 0
SMALL
GASTEIGER

@<TRIPOS>ATOM
      1 C          72.7127   76.6625   11.8338 C.ar    1  UNL1        0.1317
      2 C          73.6327   76.5030   10.6598 C.ar    1  UNL1        0.0346
      3 C          73.5916   77.4941    9.5346 C.ar    1  UNL1        0.0121
      4 C          72.6304   78.6447    9.5834 C.ar    1  UNL1        0.1076
      5 C          71.7104   78.8042   10.7574 C.ar    1  UNL1        0.1080
      6 N          71.7516   77.8131   11.8825 N.ar    1  UNL1       -0.2289
      7 C          72.7920   72.7191   17.4337 C.3     1  UNL1        0.0375
      8 C          73.0066   71.6089   16.4480 C.3     1  UNL1        0.1423
      9 O          73.0338   72.2085   15.0732 O.3     1  UNL1       -0.3584
     10 C          72.8360   73.6892   15.2093 C.3     1  UNL1        0.0961
     11 C          73.0013   73.2234   13.7931 C.3     1  UNL1        0.0487
     12 C          72.9602   74.2145   12.6680 C.3     1  UNL1        0.0946
     13 N          72.7538   75.6714   12.9590 N.pl3   1  UNL1       -0.2931
     14 C          72.5885   76.1373   14.3752 C.3     1  UNL1        0.0946
     15 C          72.6297   75.1462   15.5003 C.3     1  UNL1        0.0487
     16 C          72.6866   74.0048   16.6682 C.3     1  UNL1        0.0302
     17 C          72.6992   72.5699   18.9233 C.3     1  UNL1        0.0443
     18 O          71.2876   74.0107   20.5607 O.co2   1  UNL1       -0.5492
     19 C          71.4021   72.8439   19.6251 C.2     1  UNL1        0.0504
     20 O          70.2196   71.9512   19.3913 O.co2   1  UNL1       -0.5492
     21 C          72.5893   79.6358    8.4582 C.2     1  UNL1        0.3767
     22 N          73.2390   79.4734    7.1160 N.2     1  UNL1       -0.0308
     23 C          72.9425   80.7005    6.3060 C.2     1  UNL1        0.2320
     24 C          73.3233   81.0984    4.9107 C.2     1  UNL1        0.0537
     25 C          72.8712   82.4172    4.3571 C.2     1  UNL1        0.0714
     26 C          72.0383   83.3380    5.1986 C.2     1  UNL1       -0.0133
     27 C          71.6574   82.9401    6.5939 C.3     1  UNL1        0.1037
     28 C          72.1095   81.6214    7.1475 C.2     1  UNL1        0.2178
     29 N          71.8912   80.9633    8.4777 N.2     1  UNL1       -0.0347
     30 C          73.2520   82.8150    2.9619 C.3     1  UNL1        0.4184
     31 F          73.6329   83.2129    1.5666 F       1  UNL1       -0.1659
     32 F          73.5838   81.3869    2.6452 F       1  UNL1       -0.1659
     33 F          72.9203   84.2432    3.2786 F       1  UNL1       -0.1659
@<TRIPOS>UNITY_ATOM_ATTR
18 1
charge -1
@<TRIPOS>BOND
     1    18    19   ar
     2    19    20   ar
     3    19    17    1
     4    17     7    1
     5     7     8    1
     6     8     9    1
     7     9    10    1
     8    10    11    1
     9    11    12    1
    10    12    13    1
    11    13     1    1
    12     1     2   ar
    13     2     3   ar
    14     3     4   ar
    15     4    21    1
    16    21    22    2
    17    22    23    1
    18    23    24    2
    19    24    25    1
    20    25    30    1
    21    30    31    1
    22    30    32    1
    23    30    33    1
    24    25    26    2
    25    26    27    1
    26    27    28    1
    27    28    29    2
    28     4     5   ar
    29     5     6   ar
    30    13    14    1
    31    14    15    1
    32    10    16    1
    33    16     7    1
    34    15    10    1
    35     6     1   ar
    36    29    21    1
    37    28    23    1
