@<TRIPOS>MOLECULE
*****
 40 45 0 0 0
SMALL
GASTEIGER

@<TRIPOS>ATOM
      1 N          64.1359   92.4117   11.0578 N.3     1  UNL1       -0.2676
      2 C          64.6994   92.4163   12.4479 C.3     1  UNL1        0.0746
      3 C          64.6791   91.1615   13.2694 C.3     1  UNL1        0.0449
      4 C          64.0952   89.9021   12.7009 C.3     1  UNL1        0.1391
      5 C          63.5317   89.8976   11.3108 C.3     1  UNL1        0.0449
      6 C          63.5520   91.1524   10.4893 C.3     1  UNL1        0.0746
      7 C          63.5473   88.5743   12.2690 C.2     1  UNL1        0.2529
      8 O          62.9235   88.2681   10.9396 O.2     1  UNL1       -0.2724
      9 N          63.7326   87.6063   13.3999 N.am    1  UNL1       -0.1907
     10 C          64.3951   88.3360   14.5307 C.2     1  UNL1        0.3219
     11 O          64.7680   87.7497   15.8600 O.2     1  UNL1       -0.2512
     12 N          64.6192   89.7548   14.0988 N.am    1  UNL1       -0.2222
     13 C          65.2555   90.8366   14.9203 C.ar    1  UNL1        0.1453
     14 C          66.7093   91.1586   14.7396 C.ar    1  UNL1        0.0922
     15 C          67.3455   92.2404   15.5612 C.ar    1  UNL1        0.2259
     16 O          68.7993   92.5624   15.3806 O.3     1  UNL1       -0.4919
     17 N          66.5280   93.0001   16.5635 N.ar    1  UNL1       -0.1894
     18 C          65.0742   92.6780   16.7441 C.ar    1  UNL1        0.2027
     19 N          64.4379   91.5963   15.9226 N.ar    1  UNL1       -0.2084
     20 H          69.3101   92.0879   14.7545 H       1  UNL1        0.2938
     21 C          63.3267   86.1622   13.3999 C.ar    1  UNL1        0.0622
     22 C          63.3899   85.3655   14.6691 C.ar    1  UNL1        0.0150
     23 C          62.9840   83.9214   14.6691 C.ar    1  UNL1       -0.0030
     24 C          62.5150   83.2742   13.3999 C.ar    1  UNL1       -0.0224
     25 C          62.4519   84.0710   12.1306 C.ar    1  UNL1       -0.0030
     26 C          62.8578   85.5150   12.1306 C.ar    1  UNL1        0.0150
     27 C          62.1092   81.8301   13.3999 C.3     1  UNL1        0.0223
     28 C          60.8971   81.3917   14.1671 C.3     1  UNL1        0.0044
     29 C          60.4912   79.9477   14.1671 C.3     1  UNL1        0.0003
     30 C          61.2975   78.9420   13.3999 C.3     1  UNL1        0.0000
     31 C          62.5096   79.3804   12.6327 C.3     1  UNL1        0.0003
     32 C          62.9154   80.8245   12.6327 C.3     1  UNL1        0.0044
     33 C          64.1563   93.6666   10.2362 C.3     1  UNL1        0.1183
     34 C          64.3689   96.6503   10.0068 C.3     1  UNL1        0.0323
     35 C          65.5712   95.7908    9.7503 C.ar    1  UNL1       -0.0069
     36 C          66.8798   96.4231    9.3791 C.ar    1  UNL1       -0.0015
     37 C          68.0820   95.5636    9.1226 C.ar    1  UNL1        0.0203
     38 C          67.9757   94.0718    9.2373 C.ar    1  UNL1        0.0985
     39 N          66.6671   93.4394    9.6085 N.ar    1  UNL1       -0.2471
     40 C          65.4648   94.2989    9.8650 C.ar    1  UNL1        0.0712
@<TRIPOS>BOND
     1    34    35    1
     2    35    36   ar
     3    36    37   ar
     4    37    38   ar
     5    38    39   ar
     6    39    40   ar
     7    40    33    1
     8    33     1    1
     9     1     2    1
    10     2     3    1
    11     3     4    1
    12     4     5    1
    13     5     6    1
    14     4     7    1
    15     7     8    2
    16     7     9   am
    17     9    21    1
    18    21    22   ar
    19    22    23   ar
    20    23    24   ar
    21    24    27    1
    22    27    28    1
    23    28    29    1
    24    29    30    1
    25    30    31    1
    26    31    32    1
    27    24    25   ar
    28    25    26   ar
    29     9    10   am
    30    10    11    2
    31    10    12   am
    32    12    13    1
    33    13    14   ar
    34    14    15   ar
    35    15    16    1
    36    15    17   ar
    37    17    18   ar
    38    18    19   ar
    39    40    35   ar
    40     6     1    1
    41    26    21   ar
    42    19    13   ar
    43    12     4    1
    44    32    27    1
    45    16    20    1
@<TRIPOS>MOLECULE
*****
 40 45 0 0 0
SMALL
GASTEIGER

@<TRIPOS>ATOM
      1 N          64.0672   92.3220   10.9540 N.3     1  UNL1       -0.2676
      2 C          64.6439   92.3556   12.3383 C.3     1  UNL1        0.0746
      3 C          64.6371   91.1168   13.1838 C.3     1  UNL1        0.0449
      4 C          64.0536   89.8442   12.6452 C.3     1  UNL1        0.1391
      5 C          63.4769   89.8106   11.2609 C.3     1  UNL1        0.0449
      6 C          63.4836   91.0495   10.4153 C.3     1  UNL1        0.0746
      7 C          63.5077   88.5059   12.2440 C.2     1  UNL1        0.2529
      8 O          62.8727   88.1715   10.9268 O.2     1  UNL1       -0.2724
      9 N          63.7083   87.5606   13.3914 N.am    1  UNL1       -0.1907
     10 C          64.3782   88.3147   14.5016 C.2     1  UNL1        0.3219
     11 O          64.7665   87.7557   15.8382 O.2     1  UNL1       -0.2512
     12 N          64.5916   89.7260   14.0404 N.am    1  UNL1       -0.2222
     13 C          65.2308   90.8261   14.8350 C.ar    1  UNL1        0.1453
     14 C          66.6818   91.1497   14.6356 C.ar    1  UNL1        0.0922
     15 C          67.3209   92.2498   15.4301 C.ar    1  UNL1        0.2259
     16 O          68.7719   92.5735   15.2308 O.3     1  UNL1       -0.4919
     17 N          66.5090   93.0264   16.4241 N.ar    1  UNL1       -0.1894
     18 C          65.0580   92.7027   16.6235 C.ar    1  UNL1        0.2027
     19 N          64.4189   91.6026   15.8289 N.ar    1  UNL1       -0.2084
     20 H          69.2791   92.0885   14.6099 H       1  UNL1        0.2938
     21 C          63.3091   86.1150   13.4229 C.ar    1  UNL1        0.0622
     22 C          63.4461   85.3267   14.6915 C.ar    1  UNL1        0.0150
     23 C          63.0469   83.8811   14.7231 C.ar    1  UNL1       -0.0030
     24 C          62.5107   83.2240   13.4860 C.ar    1  UNL1       -0.0224
     25 C          62.3736   84.0124   12.2173 C.ar    1  UNL1       -0.0030
     26 C          62.7728   85.4579   12.1857 C.ar    1  UNL1        0.0150
     27 C          62.1115   81.7784   13.5175 C.3     1  UNL1        0.0223
     28 C          60.8024   81.3750   14.1289 C.3     1  UNL1        0.0044
     29 C          60.4032   79.9295   14.1604 C.3     1  UNL1        0.0003
     30 C          61.3131   78.8873   13.5806 C.3     1  UNL1        0.0000
     31 C          62.6221   79.2907   12.9693 C.3     1  UNL1        0.0003
     32 C          63.0213   80.7363   12.9377 C.3     1  UNL1        0.0044
     33 C          64.0739   93.5610   10.1084 C.3     1  UNL1        0.1183
     34 C          66.7786   92.3461    9.6515 C.3     1  UNL1        0.0323
     35 C          66.6443   93.8281    9.8405 C.ar    1  UNL1       -0.0069
     36 C          67.8623   94.7026    9.8011 C.ar    1  UNL1       -0.0015
     37 C          67.7280   96.1846    9.9901 C.ar    1  UNL1        0.0203
     38 C          66.3757   96.7920   10.2185 C.ar    1  UNL1        0.0985
     39 N          65.1576   95.9175   10.2580 N.ar    1  UNL1       -0.2471
     40 C          65.2919   94.4355   10.0690 C.ar    1  UNL1        0.0712
@<TRIPOS>BOND
     1    34    35    1
     2    35    36   ar
     3    36    37   ar
     4    37    38   ar
     5    38    39   ar
     6    39    40   ar
     7    40    33    1
     8    33     1    1
     9     1     2    1
    10     2     3    1
    11     3     4    1
    12     4     5    1
    13     5     6    1
    14     4     7    1
    15     7     8    2
    16     7     9   am
    17     9    21    1
    18    21    22   ar
    19    22    23   ar
    20    23    24   ar
    21    24    27    1
    22    27    28    1
    23    28    29    1
    24    29    30    1
    25    30    31    1
    26    31    32    1
    27    24    25   ar
    28    25    26   ar
    29     9    10   am
    30    10    11    2
    31    10    12   am
    32    12    13    1
    33    13    14   ar
    34    14    15   ar
    35    15    16    1
    36    15    17   ar
    37    17    18   ar
    38    18    19   ar
    39    40    35   ar
    40     6     1    1
    41    26    21   ar
    42    19    13   ar
    43    12     4    1
    44    32    27    1
    45    16    20    1
@<TRIPOS>MOLECULE
*****
 40 45 0 0 0
SMALL
GASTEIGER

@<TRIPOS>ATOM
      1 N          64.0336   89.4006   14.5918 N.3     1  UNL1       -0.2676
      2 C          63.1179   89.7275   13.4497 C.3     1  UNL1        0.0746
      3 C          62.6667   88.6434   12.5163 C.3     1  UNL1        0.0449
      4 C          63.1313   87.2326   12.7250 C.3     1  UNL1        0.1391
      5 C          64.0471   86.9057   13.8671 C.3     1  UNL1        0.0449
      6 C          64.4982   87.9897   14.8005 C.3     1  UNL1        0.0746
      7 C          63.5109   85.7837   12.8073 C.2     1  UNL1        0.2529
      8 O          64.4082   85.1645   13.8375 O.2     1  UNL1       -0.2724
      9 N          62.8355   85.0627   11.6785 N.am    1  UNL1       -0.1907
     10 C          62.0385   86.0660   10.8985 C.2     1  UNL1        0.3219
     11 O          61.2051   85.7788    9.6850 O.2     1  UNL1       -0.2512
     12 N          62.2213   87.4070   11.5453 N.am    1  UNL1       -0.2222
     13 C          61.6028   88.6962   11.0920 C.ar    1  UNL1        0.1453
     14 C          60.2922   89.1429   11.6688 C.ar    1  UNL1        0.0922
     15 C          59.6738   90.4321   11.2155 C.ar    1  UNL1        0.2259
     16 O          58.3632   90.8788   11.7922 O.3     1  UNL1       -0.4919
     17 N          60.3660   91.2747   10.1854 N.ar    1  UNL1       -0.1894
     18 C          61.6766   90.8279    9.6086 C.ar    1  UNL1        0.2027
     19 N          62.2950   89.5388   10.0619 N.ar    1  UNL1       -0.2084
     20 H          57.9308   90.3526   12.4357 H       1  UNL1        0.2938
     21 C          62.9389   83.5960   11.3817 C.ar    1  UNL1        0.0622
     22 C          62.3660   82.5947   12.3403 C.ar    1  UNL1        0.0150
     23 C          62.4694   81.1280   12.0435 C.ar    1  UNL1       -0.0030
     24 C          63.1457   80.6626   10.7882 C.ar    1  UNL1       -0.0224
     25 C          63.7187   81.6640    9.8296 C.ar    1  UNL1       -0.0030
     26 C          63.6153   83.1307   10.1263 C.ar    1  UNL1        0.0150
     27 C          63.2491   79.1959   10.4915 C.3     1  UNL1        0.0223
     28 C          63.9856   78.7276    9.2715 C.3     1  UNL1        0.0044
     29 C          64.0890   77.2609    8.9748 C.3     1  UNL1        0.0003
     30 C          63.4559   76.2624    9.8980 C.3     1  UNL1        0.0000
     31 C          62.7195   76.7307   11.1180 C.3     1  UNL1        0.0003
     32 C          62.6161   78.1975   11.4147 C.3     1  UNL1        0.0044
     33 C          64.4848   90.4846   15.5253 C.3     1  UNL1        0.1183
     34 C          65.3265   92.7166   17.3447 C.3     1  UNL1        0.0323
     35 C          66.0852   92.4555   16.0773 C.ar    1  UNL1       -0.0069
     36 C          67.2646   93.3104   15.7196 C.ar    1  UNL1       -0.0015
     37 C          68.0233   93.0494   14.4522 C.ar    1  UNL1        0.0203
     38 C          67.6025   91.9335   13.5425 C.ar    1  UNL1        0.0985
     39 N          66.4230   91.0785   13.9002 N.ar    1  UNL1       -0.2471
     40 C          65.6643   91.3395   15.1676 C.ar    1  UNL1        0.0712
@<TRIPOS>BOND
     1    34    35    1
     2    35    36   ar
     3    36    37   ar
     4    37    38   ar
     5    38    39   ar
     6    39    40   ar
     7    40    33    1
     8    33     1    1
     9     1     2    1
    10     2     3    1
    11     3     4    1
    12     4     5    1
    13     5     6    1
    14     4     7    1
    15     7     8    2
    16     7     9   am
    17     9    21    1
    18    21    22   ar
    19    22    23   ar
    20    23    24   ar
    21    24    27    1
    22    27    28    1
    23    28    29    1
    24    29    30    1
    25    30    31    1
    26    31    32    1
    27    24    25   ar
    28    25    26   ar
    29     9    10   am
    30    10    11    2
    31    10    12   am
    32    12    13    1
    33    13    14   ar
    34    14    15   ar
    35    15    16    1
    36    15    17   ar
    37    17    18   ar
    38    18    19   ar
    39    40    35   ar
    40     6     1    1
    41    26    21   ar
    42    19    13   ar
    43    12     4    1
    44    32    27    1
    45    16    20    1
