@<TRIPOS>MOLECULE
*****
 28 30 0 0 0
SMALL
GASTEIGER

@<TRIPOS>ATOM
      1 C          63.8136   86.3223   13.5538 C.ar    1  UNL1        0.1413
      2 C          64.2710   87.5155   14.3392 C.ar    1  UNL1        0.0539
      3 C          63.8516   88.8938   13.9219 C.ar    1  UNL1        0.0888
      4 N          62.9747   89.0790   12.7192 N.ar    1  UNL1       -0.2098
      5 C          62.5172   87.8858   11.9337 C.ar    1  UNL1        0.2539
      6 N          62.9367   86.5075   12.3510 N.ar    1  UNL1       -0.1947
      7 N          61.6403   88.0710   10.7309 N.ar    1  UNL1       -0.2008
      8 N          60.7256   87.0396   10.1395 N.ar    1  UNL1       -0.1673
      9 C          60.0440   87.6511    8.9514 C.ar    1  UNL1        0.0806
     10 C          59.0445   86.9726    8.0623 C.3     1  UNL1        0.0540
     11 C          60.5376   89.0605    8.8085 C.ar    1  UNL1        0.0313
     12 C          61.5241   89.3199    9.9083 C.ar    1  UNL1        0.0651
     13 C          62.2644   90.6030   10.1440 C.3     1  UNL1        0.0523
     14 C          64.3090   90.0871   14.7075 C.ar    1  UNL1        0.0400
     15 C          63.5118   90.5589   15.8872 C.ar    1  UNL1        0.1006
     16 N          63.9692   91.7521   16.6727 N.ar    1  UNL1       -0.2391
     17 C          65.2240   92.4734   16.2785 C.ar    1  UNL1        0.1356
     18 C          66.0212   92.0016   15.0988 C.ar    1  UNL1        0.1579
     19 C          65.5637   90.8084   14.3133 C.ar    1  UNL1        0.0416
     20 O          67.2759   92.7229   14.7046 O.3     1  UNL1       -0.4699
     21 C          68.0923   93.4308   15.7449 C.3     1  UNL1        0.2525
     22 C          63.2754   84.0618   14.7158 C.2     1  UNL1        0.4065
     23 O          61.8982   84.5580   15.0434 O.2     1  UNL1       -0.2261
     24 N          64.2331   84.9439   13.9711 N.am    1  UNL1       -0.2349
     25 H          65.1369   84.6182   13.7561 H       1  UNL1        0.1596
     26 O          63.6949   82.6834   15.1331 O.3     1  UNL1       -0.4344
     27 C          61.9662   81.1428   13.9548 C.3     1  UNL1        0.0513
     28 C          63.3903   81.5079   14.2524 C.3     1  UNL1        0.2102
@<TRIPOS>BOND
     1    27    28    1
     2    28    26    1
     3    26    22    1
     4    22    23    2
     5    22    24   am
     6    24     1    1
     7     1     2   ar
     8     2     3   ar
     9     3    14    1
    10    14    15   ar
    11    15    16   ar
    12    16    17   ar
    13    17    18   ar
    14    18    20    1
    15    20    21    1
    16    18    19   ar
    17     3     4   ar
    18     4     5   ar
    19     5     7    1
    20     7     8   ar
    21     8     9   ar
    22     9    10    1
    23     9    11   ar
    24    11    12   ar
    25    12    13    1
    26     5     6   ar
    27     6     1   ar
    28    19    14   ar
    29    12     7   ar
    30    24    25    1
@<TRIPOS>MOLECULE
*****
 28 30 0 0 0
SMALL
GASTEIGER

@<TRIPOS>ATOM
      1 C          62.6968   88.5142   11.5075 C.ar    1  UNL1        0.1413
      2 C          63.2439   89.6167   12.3649 C.ar    1  UNL1        0.0539
      3 C          63.9090   89.2924   13.6697 C.ar    1  UNL1        0.0888
      4 N          64.0270   87.8655   14.1171 N.ar    1  UNL1       -0.2098
      5 C          63.4799   86.7631   13.2597 C.ar    1  UNL1        0.2539
      6 N          62.8148   87.0874   11.9549 N.ar    1  UNL1       -0.1947
      7 N          63.5978   85.3361   13.7071 N.ar    1  UNL1       -0.2008
      8 N          63.6999   84.1370   12.8117 N.ar    1  UNL1       -0.1673
      9 C          63.7996   82.9176   13.6795 C.ar    1  UNL1        0.0806
     10 C          63.9187   81.5014   13.1998 C.3     1  UNL1        0.0540
     11 C          63.7591   83.3632   15.1113 C.ar    1  UNL1        0.0313
     12 C          63.6344   84.8579   15.1283 C.ar    1  UNL1        0.0651
     13 C          63.5595   85.7225   16.3517 C.3     1  UNL1        0.0523
     14 C          64.4562   90.3949   14.5271 C.ar    1  UNL1        0.0400
     15 C          63.7045   90.8401   15.7464 C.ar    1  UNL1        0.1006
     16 N          64.2515   91.9426   16.6038 N.ar    1  UNL1       -0.2391
     17 C          65.5504   92.6000   16.2419 C.ar    1  UNL1        0.1356
     18 C          66.3021   92.1548   15.0226 C.ar    1  UNL1        0.1579
     19 C          65.7550   91.0522   14.1652 C.ar    1  UNL1        0.0416
     20 O          67.6009   92.8121   14.6607 O.3     1  UNL1       -0.4699
     21 C          68.4094   93.5070   15.7158 C.3     1  UNL1        0.2525
     22 C          60.5451   88.6962   10.0630 C.2     1  UNL1        0.4065
     23 O          59.7234   88.2294   11.2280 O.2     1  UNL1       -0.2261
     24 N          62.0317   88.8386   10.2028 N.am    1  UNL1       -0.2349
     25 H          62.5709   89.1449    9.4382 H       1  UNL1        0.1596
     26 O          59.8800   89.0206    8.7582 O.3     1  UNL1       -0.4344
     27 C          59.9066   86.5160    8.0678 C.3     1  UNL1        0.0513
     28 C          59.4041   87.9145    7.8636 C.3     1  UNL1        0.2102
@<TRIPOS>BOND
     1    27    28    1
     2    28    26    1
     3    26    22    1
     4    22    23    2
     5    22    24   am
     6    24     1    1
     7     1     2   ar
     8     2     3   ar
     9     3    14    1
    10    14    15   ar
    11    15    16   ar
    12    16    17   ar
    13    17    18   ar
    14    18    20    1
    15    20    21    1
    16    18    19   ar
    17     3     4   ar
    18     4     5   ar
    19     5     7    1
    20     7     8   ar
    21     8     9   ar
    22     9    10    1
    23     9    11   ar
    24    11    12   ar
    25    12    13    1
    26     5     6   ar
    27     6     1   ar
    28    19    14   ar
    29    12     7   ar
    30    24    25    1
@<TRIPOS>MOLECULE
*****
 28 30 0 0 0
SMALL
GASTEIGER

@<TRIPOS>ATOM
      1 C          63.3968   85.8828   13.0221 C.ar    1  UNL1        0.1413
      2 C          62.5393   86.0434   11.8019 C.ar    1  UNL1        0.0539
      3 C          62.2262   87.4146   11.2804 C.ar    1  UNL1        0.0888
      4 N          62.7706   88.6251   11.9791 N.ar    1  UNL1       -0.2098
      5 C          63.6280   88.4645   13.1993 C.ar    1  UNL1        0.2539
      6 N          63.9411   87.0934   13.7208 N.ar    1  UNL1       -0.1947
      7 N          64.1724   89.6751   13.8981 N.ar    1  UNL1       -0.2008
      8 N          65.0641   90.7172   13.2908 N.ar    1  UNL1       -0.1673
      9 C          65.3635   91.7422   14.3441 C.ar    1  UNL1        0.0806
     10 C          66.2193   92.9617   14.1698 C.3     1  UNL1        0.0540
     11 C          64.6568   91.3336   15.6026 C.ar    1  UNL1        0.0313
     12 C          63.9207   90.0560   15.3269 C.ar    1  UNL1        0.0651
     13 C          63.0803   89.2934   16.3078 C.3     1  UNL1        0.0523
     14 C          61.3687   87.5751   10.0601 C.ar    1  UNL1        0.0400
     15 C          60.7348   88.9006    9.7581 C.ar    1  UNL1        0.1006
     16 N          59.8773   89.0612    8.5379 N.ar    1  UNL1       -0.2391
     17 C          59.6537   87.8963    7.6197 C.ar    1  UNL1        0.1356
     18 C          60.2877   86.5708    7.9217 C.ar    1  UNL1        0.1579
     19 C          61.1452   86.4103    9.1420 C.ar    1  UNL1        0.0416
     20 O          60.0641   85.4060    7.0036 O.3     1  UNL1       -0.4699
     21 C          61.2363   84.6459    6.4573 C.3     1  UNL1        0.2525
     22 C          62.8706   83.9142   14.6337 C.2     1  UNL1        0.4065
     23 O          61.7182   84.6878   15.2025 O.2     1  UNL1       -0.2261
     24 N          63.7099   84.5117   13.5436 N.am    1  UNL1       -0.2349
     25 H          64.4663   84.0039   13.1703 H       1  UNL1        0.1596
     26 O          63.1837   82.5430   15.1552 O.3     1  UNL1       -0.4344
     27 C          61.4266   81.0185   13.9984 C.3     1  UNL1        0.0513
     28 C          62.8549   81.3338   14.3306 C.3     1  UNL1        0.2102
@<TRIPOS>BOND
     1    27    28    1
     2    28    26    1
     3    26    22    1
     4    22    23    2
     5    22    24   am
     6    24     1    1
     7     1     2   ar
     8     2     3   ar
     9     3    14    1
    10    14    15   ar
    11    15    16   ar
    12    16    17   ar
    13    17    18   ar
    14    18    20    1
    15    20    21    1
    16    18    19   ar
    17     3     4   ar
    18     4     5   ar
    19     5     7    1
    20     7     8   ar
    21     8     9   ar
    22     9    10    1
    23     9    11   ar
    24    11    12   ar
    25    12    13    1
    26     5     6   ar
    27     6     1   ar
    28    19    14   ar
    29    12     7   ar
    30    24    25    1
@<TRIPOS>MOLECULE
*****
 28 30 0 0 0
SMALL
GASTEIGER

@<TRIPOS>ATOM
      1 C          63.6374   88.7236   12.9575 C.ar    1  UNL1        0.1413
      2 C          62.7756   88.8408   11.7354 C.ar    1  UNL1        0.0539
      3 C          62.1320   87.6182   11.1514 C.ar    1  UNL1        0.0888
      4 N          62.3502   86.2784   11.7895 N.ar    1  UNL1       -0.2098
      5 C          63.2120   86.1611   13.0116 C.ar    1  UNL1        0.2539
      6 N          63.8556   87.3837   13.5956 N.ar    1  UNL1       -0.1947
      7 N          63.4302   84.8213   13.6497 N.ar    1  UNL1       -0.2008
      8 N          63.3927   83.4949   12.9502 N.ar    1  UNL1       -0.1673
      9 C          63.6635   82.4264   13.9675 C.ar    1  UNL1        0.0806
     10 C          63.7196   80.9510   13.7030 C.3     1  UNL1        0.0540
     11 C          63.8684   83.0925   15.2959 C.ar    1  UNL1        0.0313
     12 C          63.7242   84.5725   15.0994 C.ar    1  UNL1        0.0651
     13 C          63.8516   85.6199   16.1656 C.3     1  UNL1        0.0523
     14 C          61.2702   87.7355    9.9292 C.ar    1  UNL1        0.0400
     15 C          60.6395   89.0508    9.5797 C.ar    1  UNL1        0.1006
     16 N          59.7778   89.1682    8.3576 N.ar    1  UNL1       -0.2391
     17 C          59.5466   87.9701    7.4850 C.ar    1  UNL1        0.1356
     18 C          60.1773   86.6548    7.8345 C.ar    1  UNL1        0.1579
     19 C          61.0391   86.5375    9.0567 C.ar    1  UNL1        0.0416
     20 O          59.9462   85.4568    6.9620 O.3     1  UNL1       -0.4699
     21 C          61.1108   84.6405    6.4852 C.3     1  UNL1        0.2525
     22 C          63.7749   90.5155   14.8336 C.2     1  UNL1        0.4065
     23 O          62.6252   89.8623   15.5418 O.2     1  UNL1       -0.2261
     24 N          64.2810   89.9462   13.5415 N.am    1  UNL1       -0.2349
     25 H          65.0356   90.3749   13.0767 H       1  UNL1        0.1596
     26 O          64.4185   91.7381   15.4176 O.3     1  UNL1       -0.4344
     27 C          66.7192   92.7316   16.1032 C.3     1  UNL1        0.0513
     28 C          65.8427   92.0688   15.0822 C.3     1  UNL1        0.2102
@<TRIPOS>BOND
     1    27    28    1
     2    28    26    1
     3    26    22    1
     4    22    23    2
     5    22    24   am
     6    24     1    1
     7     1     2   ar
     8     2     3   ar
     9     3    14    1
    10    14    15   ar
    11    15    16   ar
    12    16    17   ar
    13    17    18   ar
    14    18    20    1
    15    20    21    1
    16    18    19   ar
    17     3     4   ar
    18     4     5   ar
    19     5     7    1
    20     7     8   ar
    21     8     9   ar
    22     9    10    1
    23     9    11   ar
    24    11    12   ar
    25    12    13    1
    26     5     6   ar
    27     6     1   ar
    28    19    14   ar
    29    12     7   ar
    30    24    25    1
@<TRIPOS>MOLECULE
*****
 28 30 0 0 0
SMALL
GASTEIGER

@<TRIPOS>ATOM
      1 C          61.2988   89.2072   10.2287 C.ar    1  UNL1        0.1413
      2 C          62.1723   90.2050   10.9296 C.ar    1  UNL1        0.0539
      3 C          63.1664   89.7429   11.9535 C.ar    1  UNL1        0.0888
      4 N          63.2869   88.2831   12.2765 N.ar    1  UNL1       -0.2098
      5 C          62.4133   87.2853   11.5756 C.ar    1  UNL1        0.2539
      6 N          61.4193   87.7474   10.5517 N.ar    1  UNL1       -0.1947
      7 N          62.5338   85.8254   11.8986 N.ar    1  UNL1       -0.2008
      8 N          62.4008   85.2097   13.2599 N.ar    1  UNL1       -0.1673
      9 C          62.5932   83.7287   13.1197 C.ar    1  UNL1        0.0806
     10 C          62.5426   82.7238   14.2321 C.3     1  UNL1        0.0540
     11 C          62.8451   83.4292   11.6716 C.ar    1  UNL1        0.0313
     12 C          62.8083   84.7250   10.9169 C.ar    1  UNL1        0.0651
     13 C          63.0107   84.8911    9.4400 C.3     1  UNL1        0.0523
     14 C          64.0399   90.7408   12.6544 C.ar    1  UNL1        0.0400
     15 C          64.2162   90.6687   14.1423 C.ar    1  UNL1        0.1006
     16 N          65.0897   91.6665   14.8432 N.ar    1  UNL1       -0.2391
     17 C          65.7870   92.7364   14.0563 C.ar    1  UNL1        0.1356
     18 C          65.6108   92.8084   12.5684 C.ar    1  UNL1        0.1579
     19 C          64.7372   91.8106   11.8675 C.ar    1  UNL1        0.0416
     20 O          66.3080   93.8782   11.7815 O.3     1  UNL1       -0.4699
     21 C          66.6757   93.6354   10.3477 C.3     1  UNL1        0.2525
     22 C          59.8583   88.7363    8.1184 C.2     1  UNL1        0.4065
     23 O          60.4059   87.3411    8.0560 O.2     1  UNL1       -0.2261
     24 N          60.3047   89.6692    9.2048 N.am    1  UNL1       -0.2349
     25 H          59.9453   90.5849    9.2458 H       1  UNL1        0.1596
     26 O          58.8642   89.1983    7.0945 O.3     1  UNL1       -0.4344
     27 C          58.3935   91.0636    5.3484 C.3     1  UNL1        0.0513
     28 C          59.3159   90.0369    5.9357 C.3     1  UNL1        0.2102
@<TRIPOS>BOND
     1    27    28    1
     2    28    26    1
     3    26    22    1
     4    22    23    2
     5    22    24   am
     6    24     1    1
     7     1     2   ar
     8     2     3   ar
     9     3    14    1
    10    14    15   ar
    11    15    16   ar
    12    16    17   ar
    13    17    18   ar
    14    18    20    1
    15    20    21    1
    16    18    19   ar
    17     3     4   ar
    18     4     5   ar
    19     5     7    1
    20     7     8   ar
    21     8     9   ar
    22     9    10    1
    23     9    11   ar
    24    11    12   ar
    25    12    13    1
    26     5     6   ar
    27     6     1   ar
    28    19    14   ar
    29    12     7   ar
    30    24    25    1
@<TRIPOS>MOLECULE
*****
 28 30 0 0 0
SMALL
GASTEIGER

@<TRIPOS>ATOM
      1 C          62.4393   88.1185   11.0343 C.ar    1  UNL1        0.1413
      2 C          62.5434   86.7103   11.5403 C.ar    1  UNL1        0.0539
      3 C          63.2314   86.4306   12.8435 C.ar    1  UNL1        0.0888
      4 N          63.8154   87.5590   13.6407 N.ar    1  UNL1       -0.2098
      5 C          63.7113   88.9672   13.1346 C.ar    1  UNL1        0.2539
      6 N          63.0233   89.2469   11.8314 N.ar    1  UNL1       -0.1947
      7 N          64.2954   90.0957   13.9318 N.ar    1  UNL1       -0.2008
      8 N          65.2447   91.1381   13.4197 N.ar    1  UNL1       -0.1673
      9 C          65.5686   92.0666   14.5523 C.ar    1  UNL1        0.0806
     10 C          66.4814   93.2550   14.4847 C.3     1  UNL1        0.0540
     11 C          64.8195   91.5981   15.7645 C.ar    1  UNL1        0.0313
     12 C          64.0326   90.3800   15.3810 C.ar    1  UNL1        0.0651
     13 C          63.1397   89.5857   16.2875 C.3     1  UNL1        0.0523
     14 C          63.3355   85.0223   13.3496 C.ar    1  UNL1        0.0400
     15 C          63.9037   84.7549   14.7118 C.ar    1  UNL1        0.1006
     16 N          64.0077   83.3467   15.2178 N.ar    1  UNL1       -0.2391
     17 C          63.5436   82.2058   14.3616 C.ar    1  UNL1        0.1356
     18 C          62.9754   82.4732   12.9994 C.ar    1  UNL1        0.1579
     19 C          62.8713   83.8815   12.4934 C.ar    1  UNL1        0.0416
     20 O          62.5112   81.3324   12.1432 O.3     1  UNL1       -0.4699
     21 C          62.5186   79.9347   12.6877 C.3     1  UNL1        0.2525
     22 C          60.4113   89.0722    9.7200 C.2     1  UNL1        0.4065
     23 O          59.7592   89.4664   11.0121 O.2     1  UNL1       -0.2261
     24 N          61.7512   88.3982    9.7311 N.am    1  UNL1       -0.2349
     25 H          62.1792   88.1395    8.8830 H       1  UNL1        0.1596
     26 O          59.7232   89.3519    8.4168 O.3     1  UNL1       -0.4344
     27 C          59.0265   86.8750    8.0565 C.3     1  UNL1        0.0513
     28 C          59.3755   88.2212    7.4944 C.3     1  UNL1        0.2102
@<TRIPOS>BOND
     1    27    28    1
     2    28    26    1
     3    26    22    1
     4    22    23    2
     5    22    24   am
     6    24     1    1
     7     1     2   ar
     8     2     3   ar
     9     3    14    1
    10    14    15   ar
    11    15    16   ar
    12    16    17   ar
    13    17    18   ar
    14    18    20    1
    15    20    21    1
    16    18    19   ar
    17     3     4   ar
    18     4     5   ar
    19     5     7    1
    20     7     8   ar
    21     8     9   ar
    22     9    10    1
    23     9    11   ar
    24    11    12   ar
    25    12    13    1
    26     5     6   ar
    27     6     1   ar
    28    19    14   ar
    29    12     7   ar
    30    24    25    1
@<TRIPOS>MOLECULE
*****
 28 30 0 0 0
SMALL
GASTEIGER

@<TRIPOS>ATOM
      1 C          61.4537   87.1327   10.1351 C.ar    1  UNL1        0.1413
      2 C          61.6489   85.8052   10.8056 C.ar    1  UNL1        0.0539
      3 C          62.4885   85.7072   12.0448 C.ar    1  UNL1        0.0888
      4 N          63.1327   86.9366   12.6134 N.ar    1  UNL1       -0.2098
      5 C          62.9375   88.2641   11.9429 C.ar    1  UNL1        0.2539
      6 N          62.0979   88.3621   10.7037 N.ar    1  UNL1       -0.1947
      7 N          63.5817   89.4936   12.5115 N.ar    1  UNL1       -0.2008
      8 N          64.2105   89.6123   13.8682 N.ar    1  UNL1       -0.1673
      9 C          64.7277   91.0123   14.0185 C.ar    1  UNL1        0.0806
     10 C          65.4307   91.5682   15.2213 C.3     1  UNL1        0.0540
     11 C          64.4186   91.7588   12.7546 C.ar    1  UNL1        0.0313
     12 C          63.7103   90.8202   11.8233 C.ar    1  UNL1        0.0651
     13 C          63.2173   91.1502   10.4456 C.3     1  UNL1        0.0523
     14 C          62.6837   84.3796   12.7154 C.ar    1  UNL1        0.0400
     15 C          62.9291   84.3151   14.1937 C.ar    1  UNL1        0.1006
     16 N          63.1244   82.9876   14.8643 N.ar    1  UNL1       -0.2391
     17 C          63.0742   81.7246   14.0565 C.ar    1  UNL1        0.1356
     18 C          62.8288   81.7892   12.5781 C.ar    1  UNL1        0.1579
     19 C          62.6336   83.1168   11.9075 C.ar    1  UNL1        0.0416
     20 O          62.7787   80.5264   11.7703 O.3     1  UNL1       -0.4699
     21 C          63.1592   80.5485   10.3195 C.3     1  UNL1        0.2525
     22 C          59.9548   88.5294    8.5374 C.2     1  UNL1        0.4065
     23 O          60.1350   89.7303    9.4182 O.2     1  UNL1       -0.2261
     24 N          60.6141   87.2307    8.8959 N.am    1  UNL1       -0.2349
     25 H          60.4958   86.4426    8.3178 H       1  UNL1        0.1596
     26 O          59.1153   88.6275    7.2982 O.3     1  UNL1       -0.4344
     27 C          58.3457   90.5372    5.7137 C.3     1  UNL1        0.0513
     28 C          59.4336   89.6585    6.2563 C.3     1  UNL1        0.2102
@<TRIPOS>BOND
     1    27    28    1
     2    28    26    1
     3    26    22    1
     4    22    23    2
     5    22    24   am
     6    24     1    1
     7     1     2   ar
     8     2     3   ar
     9     3    14    1
    10    14    15   ar
    11    15    16   ar
    12    16    17   ar
    13    17    18   ar
    14    18    20    1
    15    20    21    1
    16    18    19   ar
    17     3     4   ar
    18     4     5   ar
    19     5     7    1
    20     7     8   ar
    21     8     9   ar
    22     9    10    1
    23     9    11   ar
    24    11    12   ar
    25    12    13    1
    26     5     6   ar
    27     6     1   ar
    28    19    14   ar
    29    12     7   ar
    30    24    25    1
@<TRIPOS>MOLECULE
*****
 28 30 0 0 0
SMALL
GASTEIGER

@<TRIPOS>ATOM
      1 C          63.8259   88.3007   13.4243 C.ar    1  UNL1        0.1413
      2 C          63.9814   86.8633   13.8238 C.ar    1  UNL1        0.0539
      3 C          63.2666   85.7903   13.0571 C.ar    1  UNL1        0.0888
      4 N          62.3964   86.1547   11.8910 N.ar    1  UNL1       -0.2098
      5 C          62.2409   87.5921   11.4915 C.ar    1  UNL1        0.2539
      6 N          62.9557   88.6651   12.2582 N.ar    1  UNL1       -0.1947
      7 N          61.3707   87.9566   10.3253 N.ar    1  UNL1       -0.2008
      8 N          60.4950   87.0166    9.5510 N.ar    1  UNL1       -0.1673
      9 C          59.8064   87.8040    8.4759 C.ar    1  UNL1        0.0806
     10 C          58.8378   87.2603    7.4679 C.3     1  UNL1        0.0540
     11 C          60.2567   89.2306    8.5858 C.ar    1  UNL1        0.0313
     12 C          61.2234   89.3249    9.7288 C.ar    1  UNL1        0.0651
     13 C          61.9204   90.5691   10.1936 C.3     1  UNL1        0.0523
     14 C          63.4222   84.3528   13.4566 C.ar    1  UNL1        0.0400
     15 C          63.9202   84.0053   14.8282 C.ar    1  UNL1        0.1006
     16 N          64.0757   82.5679   15.2277 N.ar    1  UNL1       -0.2391
     17 C          63.7332   81.4779   14.2556 C.ar    1  UNL1        0.1356
     18 C          63.2352   81.8255   12.8841 C.ar    1  UNL1        0.1579
     19 C          63.0797   83.2630   12.4846 C.ar    1  UNL1        0.0416
     20 O          62.8928   80.7356   11.9120 O.3     1  UNL1       -0.4699
     21 C          63.2564   80.8807   10.4641 C.3     1  UNL1        0.2525
     22 C          63.8201   90.1359   15.2633 C.2     1  UNL1        0.4065
     23 O          62.3848   89.8251   15.5690 O.2     1  UNL1       -0.2261
     24 N          64.5406   89.3737   14.1910 N.am    1  UNL1       -0.2349
     25 H          65.4826   89.5778   13.9904 H       1  UNL1        0.1596
     26 O          64.5348   91.2089   16.0300 O.3     1  UNL1       -0.4344
     27 C          66.7242   92.6066   16.0856 C.3     1  UNL1        0.0513
     28 C          65.5325   92.0884   15.3363 C.3     1  UNL1        0.2102
@<TRIPOS>BOND
     1    27    28    1
     2    28    26    1
     3    26    22    1
     4    22    23    2
     5    22    24   am
     6    24     1    1
     7     1     2   ar
     8     2     3   ar
     9     3    14    1
    10    14    15   ar
    11    15    16   ar
    12    16    17   ar
    13    17    18   ar
    14    18    20    1
    15    20    21    1
    16    18    19   ar
    17     3     4   ar
    18     4     5   ar
    19     5     7    1
    20     7     8   ar
    21     8     9   ar
    22     9    10    1
    23     9    11   ar
    24    11    12   ar
    25    12    13    1
    26     5     6   ar
    27     6     1   ar
    28    19    14   ar
    29    12     7   ar
    30    24    25    1
@<TRIPOS>MOLECULE
*****
 28 30 0 0 0
SMALL
GASTEIGER

@<TRIPOS>ATOM
      1 C          61.1917   87.5380   11.0538 C.ar    1  UNL1        0.1413
      2 C          61.9607   88.7949   11.3344 C.ar    1  UNL1        0.0539
      3 C          63.1345   88.7635   12.2678 C.ar    1  UNL1        0.0888
      4 N          63.5393   87.4752   12.9207 N.ar    1  UNL1       -0.2098
      5 C          62.7703   86.2182   12.6401 C.ar    1  UNL1        0.2539
      6 N          61.5965   86.2497   11.7067 N.ar    1  UNL1       -0.1947
      7 N          63.1751   84.9298   13.2930 N.ar    1  UNL1       -0.2008
      8 N          62.9919   83.5556   12.7203 N.ar    1  UNL1       -0.1673
      9 C          63.5376   82.5659   13.7065 C.ar    1  UNL1        0.0806
     10 C          63.5591   81.0753   13.5398 C.3     1  UNL1        0.0540
     11 C          64.0581   83.3285   14.8887 C.ar    1  UNL1        0.0313
     12 C          63.8341   84.7894   14.6331 C.ar    1  UNL1        0.0651
     13 C          64.2040   85.9128   15.5558 C.3     1  UNL1        0.0523
     14 C          63.9035   90.0205   12.5483 C.ar    1  UNL1        0.0400
     15 C          63.9467   91.1172   11.5259 C.ar    1  UNL1        0.1006
     16 N          64.7157   92.3742   11.8063 N.ar    1  UNL1       -0.2391
     17 C          65.4415   92.5345   13.1093 C.ar    1  UNL1        0.1356
     18 C          65.3983   91.4378   14.1317 C.ar    1  UNL1        0.1579
     19 C          64.6293   90.1808   13.8512 C.ar    1  UNL1        0.0416
     20 O          66.1240   91.5980   15.4346 O.3     1  UNL1       -0.4699
     21 C          66.8002   92.8964   15.7616 C.3     1  UNL1        0.2525
     22 C          60.1238   86.9443    8.7610 C.2     1  UNL1        0.4065
     23 O          61.4035   86.2877    8.3350 O.2     1  UNL1       -0.2261
     24 N          60.0180   87.5694   10.1204 N.am    1  UNL1       -0.2349
     25 H          59.1781   88.0003   10.4000 H       1  UNL1        0.1596
     26 O          58.9500   86.9757    7.8276 O.3     1  UNL1       -0.4344
     27 C          59.6350   89.3523    7.0321 C.3     1  UNL1        0.0513
     28 C          58.6628   88.2100    7.0251 C.3     1  UNL1        0.2102
@<TRIPOS>BOND
     1    27    28    1
     2    28    26    1
     3    26    22    1
     4    22    23    2
     5    22    24   am
     6    24     1    1
     7     1     2   ar
     8     2     3   ar
     9     3    14    1
    10    14    15   ar
    11    15    16   ar
    12    16    17   ar
    13    17    18   ar
    14    18    20    1
    15    20    21    1
    16    18    19   ar
    17     3     4   ar
    18     4     5   ar
    19     5     7    1
    20     7     8   ar
    21     8     9   ar
    22     9    10    1
    23     9    11   ar
    24    11    12   ar
    25    12    13    1
    26     5     6   ar
    27     6     1   ar
    28    19    14   ar
    29    12     7   ar
    30    24    25    1
