@<TRIPOS>MOLECULE
*****
 35 38 0 0 0
SMALL
GASTEIGER

@<TRIPOS>ATOM
      1 N          63.0798   85.2440   13.0741 N.am    1  UNL1       -0.2734
      2 C          62.8177   83.7758   12.9126 C.2     1  UNL1        0.2438
      3 O          62.5755   83.2029   11.5477 O.2     1  UNL1       -0.2731
      4 C          62.7979   82.8807   14.1160 C.3     1  UNL1        0.1487
      5 N          63.0402   83.4536   15.4810 N.am    1  UNL1       -0.2971
      6 C          63.3023   84.9217   15.6425 C.2     1  UNL1        0.2389
      7 O          63.5445   85.4946   17.0074 O.2     1  UNL1       -0.2734
      8 C          63.3221   85.8169   14.4390 C.3     1  UNL1        0.1314
      9 C          63.3418   86.7120   13.2356 C.3     1  UNL1        0.0445
     10 C          63.6039   88.1800   13.3971 C.3     1  UNL1        0.0745
     11 N          63.8462   88.7530   14.7620 N.3     1  UNL1       -0.2688
     12 C          63.8264   87.8578   15.9655 C.3     1  UNL1        0.0745
     13 C          63.5643   86.3898   15.8040 C.3     1  UNL1        0.0445
     14 H          63.0272   82.8661   16.2708 H       1  UNL1        0.1499
     15 C          62.5359   81.4126   13.9546 C.3     1  UNL1        0.0269
     16 C          63.6562   80.4872   13.5824 C.3     1  UNL1        0.0022
     17 C          61.1535   80.8699   14.1653 C.3     1  UNL1        0.0022
     18 C          63.0996   86.1391   11.8706 C.3     1  UNL1        0.0938
     19 C          61.8990   86.2181   10.9749 C.3     1  UNL1        0.0215
     20 C          62.7655   85.5929    8.6067 C.3     1  UNL1        0.0001
     21 C          62.0675   86.5540    9.5227 C.3     1  UNL1        0.0018
     22 C          64.1082   90.2211   14.9235 C.3     1  UNL1        0.0992
     23 C          64.9544   90.9467   13.9198 C.ar    1  UNL1       -0.0059
     24 C          64.3783   91.3267   12.5880 C.ar    1  UNL1        0.0002
     25 C          65.2246   92.0524   11.5843 C.ar    1  UNL1        0.0372
     26 C          66.6468   92.3981   11.9125 C.ar    1  UNL1        0.1453
     27 C          67.2228   92.0181   13.2443 C.ar    1  UNL1        0.0372
     28 C          66.3767   91.2925   14.2480 C.ar    1  UNL1        0.0002
     29 O          67.4929   93.1237   10.9088 O.3     1  UNL1       -0.4535
     30 C          66.9745   94.3678   10.2503 C.ar    1  UNL1        0.1453
     31 C          66.1200   95.3263   11.0255 C.ar    1  UNL1        0.0375
     32 C          65.6016   96.5703   10.3670 C.ar    1  UNL1        0.0031
     33 C          65.9378   96.8559    8.9334 C.ar    1  UNL1        0.0002
     34 C          66.7924   95.8974    8.1581 C.ar    1  UNL1        0.0031
     35 C          67.3108   94.6533    8.8166 C.ar    1  UNL1        0.0375
@<TRIPOS>BOND
     1    20    21    1
     2    21    19    1
     3    19    18    1
     4    18     1    1
     5     1     2   am
     6     2     3    2
     7     2     4    1
     8     4    15    1
     9    15    16    1
    10    15    17    1
    11     4     5    1
    12     5     6   am
    13     6     7    2
    14     6     8    1
    15     8     9    1
    16     9    10    1
    17    10    11    1
    18    11    22    1
    19    22    23    1
    20    23    24   ar
    21    24    25   ar
    22    25    26   ar
    23    26    29    1
    24    29    30    1
    25    30    31   ar
    26    31    32   ar
    27    32    33   ar
    28    33    34   ar
    29    34    35   ar
    30    26    27   ar
    31    27    28   ar
    32    11    12    1
    33    12    13    1
    34     8     1    1
    35    28    23   ar
    36    13     8    1
    37    35    30   ar
    38     5    14    1
@<TRIPOS>MOLECULE
*****
 35 38 0 0 0
SMALL
GASTEIGER

@<TRIPOS>ATOM
      1 N          64.5392   92.1639   12.0625 N.am    1  UNL1       -0.2734
      2 C          65.1534   93.0953   11.0598 C.2     1  UNL1        0.2438
      3 O          64.5918   93.1788    9.6714 O.2     1  UNL1       -0.2731
      4 C          66.3292   93.9430   11.4455 C.3     1  UNL1        0.1487
      5 N          66.8908   93.8594   12.8339 N.am    1  UNL1       -0.2971
      6 C          66.2767   92.9281   13.8366 C.2     1  UNL1        0.2389
      7 O          66.8383   92.8446   15.2249 O.2     1  UNL1       -0.2734
      8 C          65.1008   92.0803   13.4509 C.3     1  UNL1        0.1314
      9 C          63.9250   91.2326   13.0652 C.3     1  UNL1        0.0445
     10 C          63.3108   90.3013   14.0679 C.3     1  UNL1        0.0745
     11 N          63.8725   90.2178   15.4563 N.3     1  UNL1       -0.2688
     12 C          65.0483   91.0655   15.8420 C.3     1  UNL1        0.0745
     13 C          65.6624   91.9968   14.8393 C.3     1  UNL1        0.0445
     14 H          67.6626   94.4158   13.0870 H       1  UNL1        0.1499
     15 C          66.9435   94.8743   10.4428 C.3     1  UNL1        0.0269
     16 C          67.8502   94.3359    9.3761 C.3     1  UNL1        0.0022
     17 C          66.6509   96.3441   10.5068 C.3     1  UNL1        0.0022
     18 C          63.3634   91.3162   11.6768 C.3     1  UNL1        0.0938
     19 C          63.4118   90.4916   10.4248 C.3     1  UNL1        0.0215
     20 C          62.3403   88.2243   11.1039 C.3     1  UNL1        0.0001
     21 C          62.3915   89.4164   10.1949 C.3     1  UNL1        0.0018
     22 C          63.2582   89.2864   16.4590 C.3     1  UNL1        0.0992
     23 C          63.3612   87.8025   16.2658 C.ar    1  UNL1       -0.0059
     24 C          64.2406   87.2461   15.1854 C.ar    1  UNL1        0.0002
     25 C          64.3435   85.7621   14.9922 C.ar    1  UNL1        0.0372
     26 C          63.5672   84.8346   15.8794 C.ar    1  UNL1        0.1453
     27 C          62.6878   85.3910   16.9597 C.ar    1  UNL1        0.0372
     28 C          62.5848   86.8749   17.1529 C.ar    1  UNL1        0.0002
     29 O          63.6701   83.3507   15.6861 O.3     1  UNL1       -0.4535
     30 C          63.4468   82.7539   14.3282 C.ar    1  UNL1        0.1453
     31 C          62.3266   81.7802   14.1119 C.ar    1  UNL1        0.0375
     32 C          62.1033   81.1834   12.7540 C.ar    1  UNL1        0.0031
     33 C          63.0002   81.5603   11.6124 C.ar    1  UNL1        0.0002
     34 C          64.1206   82.5340   11.8286 C.ar    1  UNL1        0.0031
     35 C          64.3439   83.1308   13.1866 C.ar    1  UNL1        0.0375
@<TRIPOS>BOND
     1    20    21    1
     2    21    19    1
     3    19    18    1
     4    18     1    1
     5     1     2   am
     6     2     3    2
     7     2     4    1
     8     4    15    1
     9    15    16    1
    10    15    17    1
    11     4     5    1
    12     5     6   am
    13     6     7    2
    14     6     8    1
    15     8     9    1
    16     9    10    1
    17    10    11    1
    18    11    22    1
    19    22    23    1
    20    23    24   ar
    21    24    25   ar
    22    25    26   ar
    23    26    29    1
    24    29    30    1
    25    30    31   ar
    26    31    32   ar
    27    32    33   ar
    28    33    34   ar
    29    34    35   ar
    30    26    27   ar
    31    27    28   ar
    32    11    12    1
    33    12    13    1
    34     8     1    1
    35    28    23   ar
    36    13     8    1
    37    35    30   ar
    38     5    14    1
@<TRIPOS>MOLECULE
*****
 35 38 0 0 0
SMALL
GASTEIGER

@<TRIPOS>ATOM
      1 N          62.9736   84.4368   13.1706 N.am    1  UNL1       -0.2734
      2 C          62.5302   83.0314   12.8901 C.2     1  UNL1        0.2438
      3 O          62.4929   82.5243   11.4789 O.2     1  UNL1       -0.2731
      4 C          62.1242   82.1333   14.0207 C.3     1  UNL1        0.1487
      5 N          62.1615   82.6404   15.4319 N.am    1  UNL1       -0.2971
      6 C          62.6048   84.0456   15.7125 C.2     1  UNL1        0.2389
      7 O          62.6422   84.5528   17.1236 O.2     1  UNL1       -0.2734
      8 C          63.0109   84.9439   14.5817 C.3     1  UNL1        0.1314
      9 C          63.4169   85.8420   13.4511 C.3     1  UNL1        0.0445
     10 C          63.8603   87.2472   13.7316 C.3     1  UNL1        0.0745
     11 N          63.8976   87.7543   15.1428 N.3     1  UNL1       -0.2688
     12 C          63.4916   86.8562   16.2735 C.3     1  UNL1        0.0745
     13 C          63.0482   85.4510   15.9929 C.3     1  UNL1        0.0445
     14 H          61.8950   82.0509   16.1740 H       1  UNL1        0.1499
     15 C          61.6808   80.7280   13.7403 C.3     1  UNL1        0.0269
     16 C          60.2684   80.3151   14.0308 C.3     1  UNL1        0.0022
     17 C          62.6500   79.7357   13.1693 C.3     1  UNL1        0.0022
     18 C          63.3796   85.3349   12.0399 C.3     1  UNL1        0.0938
     19 C          62.3388   85.8962   11.1170 C.3     1  UNL1        0.0215
     20 C          61.3254   86.0859    8.7323 C.3     1  UNL1        0.0001
     21 C          62.4439   85.6648    9.6388 C.3     1  UNL1        0.0018
     22 C          64.3410   89.1596   15.4233 C.3     1  UNL1        0.0992
     23 C          64.4720   90.1433   14.2985 C.ar    1  UNL1       -0.0059
     24 C          65.5811   91.1532   14.3107 C.ar    1  UNL1        0.0002
     25 C          65.7121   92.1369   13.1859 C.ar    1  UNL1        0.0372
     26 C          64.7340   92.1108   12.0489 C.ar    1  UNL1        0.1453
     27 C          63.6250   91.1009   12.0367 C.ar    1  UNL1        0.0372
     28 C          63.4939   90.1172   13.1615 C.ar    1  UNL1        0.0002
     29 O          64.8651   93.0945   10.9242 O.3     1  UNL1       -0.4535
     30 C          66.1880   93.2827   10.2427 C.ar    1  UNL1        0.1453
     31 C          66.5600   94.6244    9.6846 C.ar    1  UNL1        0.0375
     32 C          67.8829   94.8126    9.0032 C.ar    1  UNL1        0.0031
     33 C          68.8339   93.6592    8.8798 C.ar    1  UNL1        0.0002
     34 C          68.4619   92.3175    9.4380 C.ar    1  UNL1        0.0031
     35 C          67.1390   92.1292   10.1194 C.ar    1  UNL1        0.0375
@<TRIPOS>BOND
     1    20    21    1
     2    21    19    1
     3    19    18    1
     4    18     1    1
     5     1     2   am
     6     2     3    2
     7     2     4    1
     8     4    15    1
     9    15    16    1
    10    15    17    1
    11     4     5    1
    12     5     6   am
    13     6     7    2
    14     6     8    1
    15     8     9    1
    16     9    10    1
    17    10    11    1
    18    11    22    1
    19    22    23    1
    20    23    24   ar
    21    24    25   ar
    22    25    26   ar
    23    26    29    1
    24    29    30    1
    25    30    31   ar
    26    31    32   ar
    27    32    33   ar
    28    33    34   ar
    29    34    35   ar
    30    26    27   ar
    31    27    28   ar
    32    11    12    1
    33    12    13    1
    34     8     1    1
    35    28    23   ar
    36    13     8    1
    37    35    30   ar
    38     5    14    1
@<TRIPOS>MOLECULE
*****
 35 38 0 0 0
SMALL
GASTEIGER

@<TRIPOS>ATOM
      1 N          62.0664   87.0231   11.0011 N.am    1  UNL1       -0.2734
      2 C          62.9436   86.8854   12.2101 C.2     1  UNL1        0.2438
      3 O          63.4414   85.5327   12.6254 O.2     1  UNL1       -0.2731
      4 C          63.3231   88.1004   13.0037 C.3     1  UNL1        0.1487
      5 N          62.8253   89.4531   12.5884 N.am    1  UNL1       -0.2971
      6 C          61.9481   89.5907   11.3795 C.2     1  UNL1        0.2389
      7 O          61.4503   90.9434   10.9641 O.2     1  UNL1       -0.2734
      8 C          61.5686   88.3757   10.5858 C.3     1  UNL1        0.1314
      9 C          61.1892   87.1607    9.7922 C.3     1  UNL1        0.0445
     10 C          60.3120   87.2984    8.5833 C.3     1  UNL1        0.0745
     11 N          59.8142   88.6511    8.1680 N.3     1  UNL1       -0.2688
     12 C          60.1936   89.8661    8.9616 C.3     1  UNL1        0.0745
     13 C          61.0708   89.7284   10.1705 C.3     1  UNL1        0.0445
     14 H          63.0743   90.2505   13.1092 H       1  UNL1        0.1499
     15 C          64.2003   87.9627   14.2127 C.3     1  UNL1        0.0269
     16 C          64.5296   86.6013   14.7493 C.3     1  UNL1        0.0022
     17 C          64.7482   89.1866   14.8850 C.3     1  UNL1        0.0022
     18 C          61.6870   85.8081   10.2076 C.3     1  UNL1        0.0938
     19 C          62.7540   84.9248    9.6320 C.3     1  UNL1        0.0215
     20 C          62.4814   84.7780    7.0525 C.3     1  UNL1        0.0001
     21 C          63.2821   85.1877    8.2529 C.3     1  UNL1        0.0018
     22 C          58.9370   88.7888    6.9590 C.3     1  UNL1        0.0992
     23 C          59.1113   89.9574    6.0350 C.ar    1  UNL1       -0.0059
     24 C          60.4790   90.3253    5.5409 C.ar    1  UNL1        0.0002
     25 C          60.6533   91.4940    4.6168 C.ar    1  UNL1        0.0372
     26 C          59.4600   92.2947    4.1869 C.ar    1  UNL1        0.1453
     27 C          58.0924   91.9268    4.6810 C.ar    1  UNL1        0.0372
     28 C          57.9180   90.7582    5.6050 C.ar    1  UNL1        0.0002
     29 O          59.6344   93.4633    3.2628 O.3     1  UNL1       -0.4535
     30 C          60.2073   93.2566    1.8920 C.ar    1  UNL1        0.1453
     31 C          59.2979   92.9659    0.7352 C.ar    1  UNL1        0.0375
     32 C          59.8707   92.7592   -0.6357 C.ar    1  UNL1        0.0031
     33 C          61.3530   92.8432   -0.8496 C.ar    1  UNL1        0.0002
     34 C          62.2625   93.1339    0.3073 C.ar    1  UNL1        0.0031
     35 C          61.6896   93.3406    1.6781 C.ar    1  UNL1        0.0375
@<TRIPOS>BOND
     1    20    21    1
     2    21    19    1
     3    19    18    1
     4    18     1    1
     5     1     2   am
     6     2     3    2
     7     2     4    1
     8     4    15    1
     9    15    16    1
    10    15    17    1
    11     4     5    1
    12     5     6   am
    13     6     7    2
    14     6     8    1
    15     8     9    1
    16     9    10    1
    17    10    11    1
    18    11    22    1
    19    22    23    1
    20    23    24   ar
    21    24    25   ar
    22    25    26   ar
    23    26    29    1
    24    29    30    1
    25    30    31   ar
    26    31    32   ar
    27    32    33   ar
    28    33    34   ar
    29    34    35   ar
    30    26    27   ar
    31    27    28   ar
    32    11    12    1
    33    12    13    1
    34     8     1    1
    35    28    23   ar
    36    13     8    1
    37    35    30   ar
    38     5    14    1
@<TRIPOS>MOLECULE
*****
 35 38 0 0 0
SMALL
GASTEIGER

@<TRIPOS>ATOM
      1 N          62.2155   89.1744   11.2564 N.am    1  UNL1       -0.2734
      2 C          63.0945   88.9568   12.4522 C.2     1  UNL1        0.2438
      3 O          63.7264   90.1295   13.1418 O.2     1  UNL1       -0.2731
      4 C          63.3417   87.5666   12.9583 C.3     1  UNL1        0.1487
      5 N          62.7098   86.3940   12.2687 N.am    1  UNL1       -0.2971
      6 C          61.8308   86.6115   11.0729 C.2     1  UNL1        0.2389
      7 O          61.1989   85.4388   10.3833 O.2     1  UNL1       -0.2734
      8 C          61.5836   88.0017   10.5667 C.3     1  UNL1        0.1314
      9 C          61.3364   89.3919   10.0606 C.3     1  UNL1        0.0445
     10 C          60.4574   89.6095    8.8648 C.3     1  UNL1        0.0745
     11 N          59.8255   88.4368    8.1752 N.3     1  UNL1       -0.2688
     12 C          60.0727   87.0466    8.6813 C.3     1  UNL1        0.0745
     13 C          60.9517   86.8291    9.8771 C.3     1  UNL1        0.0445
     14 H          62.8721   85.4815   12.6009 H       1  UNL1        0.1499
     15 C          64.2208   87.3490   14.1542 C.3     1  UNL1        0.0269
     16 C          64.7021   85.9686   14.4900 C.3     1  UNL1        0.0022
     17 C          64.6185   88.5119   15.0141 C.3     1  UNL1        0.0022
     18 C          61.9683   90.5646   10.7502 C.3     1  UNL1        0.0938
     19 C          63.0797   91.3353   10.1015 C.3     1  UNL1        0.0215
     20 C          65.0648   92.9721   10.4621 C.3     1  UNL1        0.0001
     21 C          64.2468   91.8012   10.9204 C.3     1  UNL1        0.0018
     22 C          58.9465   88.6544    6.9793 C.3     1  UNL1        0.0992
     23 C          59.1620   89.8483    6.0973 C.ar    1  UNL1       -0.0059
     24 C          60.5386   90.1726    5.5972 C.ar    1  UNL1        0.0002
     25 C          60.7541   91.3666    4.7151 C.ar    1  UNL1        0.0372
     26 C          59.5932   92.2363    4.3332 C.ar    1  UNL1        0.1453
     27 C          58.2167   91.9120    4.8333 C.ar    1  UNL1        0.0372
     28 C          58.0011   90.7181    5.7153 C.ar    1  UNL1        0.0002
     29 O          59.8088   93.4302    3.4512 O.3     1  UNL1       -0.4535
     30 C          60.3217   93.2473    2.0535 C.ar    1  UNL1        0.1453
     31 C          61.7809   93.4329    1.7598 C.ar    1  UNL1        0.0375
     32 C          62.2938   93.2500    0.3621 C.ar    1  UNL1        0.0031
     33 C          61.3475   92.8815   -0.7418 C.ar    1  UNL1        0.0002
     34 C          59.8882   92.6959   -0.4481 C.ar    1  UNL1        0.0031
     35 C          59.3753   92.8788    0.9495 C.ar    1  UNL1        0.0375
@<TRIPOS>BOND
     1    20    21    1
     2    21    19    1
     3    19    18    1
     4    18     1    1
     5     1     2   am
     6     2     3    2
     7     2     4    1
     8     4    15    1
     9    15    16    1
    10    15    17    1
    11     4     5    1
    12     5     6   am
    13     6     7    2
    14     6     8    1
    15     8     9    1
    16     9    10    1
    17    10    11    1
    18    11    22    1
    19    22    23    1
    20    23    24   ar
    21    24    25   ar
    22    25    26   ar
    23    26    29    1
    24    29    30    1
    25    30    31   ar
    26    31    32   ar
    27    32    33   ar
    28    33    34   ar
    29    34    35   ar
    30    26    27   ar
    31    27    28   ar
    32    11    12    1
    33    12    13    1
    34     8     1    1
    35    28    23   ar
    36    13     8    1
    37    35    30   ar
    38     5    14    1
@<TRIPOS>MOLECULE
*****
 35 38 0 0 0
SMALL
GASTEIGER

@<TRIPOS>ATOM
      1 N          61.5977   87.9190   10.2731 N.am    1  UNL1       -0.2734
      2 C          62.3138   86.9717   11.1897 C.2     1  UNL1        0.2438
      3 O          63.0410   87.4970   12.3918 O.2     1  UNL1       -0.2731
      4 C          62.3026   85.4992   10.9041 C.3     1  UNL1        0.1487
      5 N          61.5753   84.9739    9.7019 N.am    1  UNL1       -0.2971
      6 C          60.8593   85.9211    8.7854 C.2     1  UNL1        0.2389
      7 O          60.1321   85.3958    7.5832 O.2     1  UNL1       -0.2734
      8 C          60.8705   87.3937    9.0710 C.3     1  UNL1        0.1314
      9 C          60.8817   88.8662    9.3566 C.3     1  UNL1        0.0445
     10 C          60.1657   89.8134    8.4400 C.3     1  UNL1        0.0745
     11 N          59.4384   89.2880    7.2379 N.3     1  UNL1       -0.2688
     12 C          59.4272   87.8156    6.9523 C.3     1  UNL1        0.0745
     13 C          60.1433   86.8684    7.8688 C.3     1  UNL1        0.0445
     14 H          61.5680   84.0075    9.5145 H       1  UNL1        0.1499
     15 C          63.0186   84.5520   11.8206 C.3     1  UNL1        0.0269
     16 C          64.1051   83.6673   11.2850 C.3     1  UNL1        0.0022
     17 C          62.6482   84.4895   13.2728 C.3     1  UNL1        0.0022
     18 C          61.6090   89.3915   10.5587 C.3     1  UNL1        0.0938
     19 C          62.8474   90.1967   10.2979 C.3     1  UNL1        0.0215
     20 C          64.5698   91.9643   11.1095 C.3     1  UNL1        0.0001
     21 C          63.4863   90.9719   11.4117 C.3     1  UNL1        0.0018
     22 C          58.7224   90.2353    6.3213 C.3     1  UNL1        0.0992
     23 C          59.4854   90.9763    5.2635 C.ar    1  UNL1       -0.0059
     24 C          58.8147   92.0642    4.4783 C.ar    1  UNL1        0.0002
     25 C          59.5778   92.8051    3.4205 C.ar    1  UNL1        0.0372
     26 C          61.0114   92.4581    3.1480 C.ar    1  UNL1        0.1453
     27 C          61.6820   91.3702    3.9333 C.ar    1  UNL1        0.0372
     28 C          60.9191   90.6293    4.9910 C.ar    1  UNL1        0.0002
     29 O          61.7743   93.1991    2.0903 O.3     1  UNL1       -0.4535
     30 C          61.2888   93.1914    0.6711 C.ar    1  UNL1        0.1453
     31 C          59.9081   92.6986    0.3534 C.ar    1  UNL1        0.0375
     32 C          59.4226   92.6910   -1.0658 C.ar    1  UNL1        0.0031
     33 C          60.3176   93.1761   -2.1673 C.ar    1  UNL1        0.0002
     34 C          61.6983   93.6689   -1.8497 C.ar    1  UNL1        0.0031
     35 C          62.1839   93.6766   -0.4305 C.ar    1  UNL1        0.0375
@<TRIPOS>BOND
     1    20    21    1
     2    21    19    1
     3    19    18    1
     4    18     1    1
     5     1     2   am
     6     2     3    2
     7     2     4    1
     8     4    15    1
     9    15    16    1
    10    15    17    1
    11     4     5    1
    12     5     6   am
    13     6     7    2
    14     6     8    1
    15     8     9    1
    16     9    10    1
    17    10    11    1
    18    11    22    1
    19    22    23    1
    20    23    24   ar
    21    24    25   ar
    22    25    26   ar
    23    26    29    1
    24    29    30    1
    25    30    31   ar
    26    31    32   ar
    27    32    33   ar
    28    33    34   ar
    29    34    35   ar
    30    26    27   ar
    31    27    28   ar
    32    11    12    1
    33    12    13    1
    34     8     1    1
    35    28    23   ar
    36    13     8    1
    37    35    30   ar
    38     5    14    1
@<TRIPOS>MOLECULE
*****
 35 38 0 0 0
SMALL
GASTEIGER

@<TRIPOS>ATOM
      1 N          61.2286   93.7426   -1.5196 N.am    1  UNL1       -0.2734
      2 C          62.0109   93.7390   -2.7995 C.2     1  UNL1        0.2438
      3 O          61.2988   93.8594   -4.1141 O.2     1  UNL1       -0.2731
      4 C          63.5054   93.6149   -2.7647 C.3     1  UNL1        0.1487
      5 N          64.2175   93.4945   -1.4500 N.am    1  UNL1       -0.2971
      6 C          63.4353   93.4981   -0.1702 C.2     1  UNL1        0.2389
      7 O          64.1475   93.3776    1.1445 O.2     1  UNL1       -0.2734
      8 C          61.9408   93.6221   -0.2050 C.3     1  UNL1        0.1314
      9 C          60.4464   93.7462   -0.2398 C.3     1  UNL1        0.0445
     10 C          59.6641   93.7498    1.0401 C.3     1  UNL1        0.0745
     11 N          60.3763   93.6293    2.3547 N.3     1  UNL1       -0.2688
     12 C          61.8707   93.5053    2.3895 C.3     1  UNL1        0.0745
     13 C          62.6529   93.5017    1.1097 C.3     1  UNL1        0.0445
     14 H          65.1984   93.4130   -1.4272 H       1  UNL1        0.1499
     15 C          64.2877   93.6113   -4.0445 C.3     1  UNL1        0.0269
     16 C          64.5758   92.3160   -4.7438 C.3     1  UNL1        0.0022
     17 C          64.7819   94.9031   -4.6251 C.3     1  UNL1        0.0022
     18 C          59.7342   93.8666   -1.5544 C.3     1  UNL1        0.0938
     19 C          58.9001   92.7382   -2.0844 C.3     1  UNL1        0.0215
     20 C          57.4016   91.7416   -3.9582 C.3     1  UNL1        0.0001
     21 C          58.1378   92.9062   -3.3652 C.3     1  UNL1        0.0018
     22 C          59.5939   93.6329    3.6346 C.3     1  UNL1        0.0992
     23 C          59.4064   92.3582    4.4025 C.ar    1  UNL1       -0.0059
     24 C          58.0327   91.9381    4.8346 C.ar    1  UNL1        0.0002
     25 C          57.8452   90.6632    5.6026 C.ar    1  UNL1        0.0372
     26 C          59.0313   89.8086    5.9385 C.ar    1  UNL1        0.1453
     27 C          60.4049   90.2287    5.5064 C.ar    1  UNL1        0.0372
     28 C          60.5924   91.5035    4.7385 C.ar    1  UNL1        0.0002
     29 O          58.8437   88.5339    6.7064 O.3     1  UNL1       -0.4535
     30 C          59.7982   88.1733    7.8060 C.ar    1  UNL1        0.1453
     31 C          60.3133   89.2362    8.7305 C.ar    1  UNL1        0.0375
     32 C          61.2678   88.8756    9.8300 C.ar    1  UNL1        0.0031
     33 C          61.7071   87.4522   10.0051 C.ar    1  UNL1        0.0002
     34 C          61.1919   86.3892    9.0805 C.ar    1  UNL1        0.0031
     35 C          60.2374   86.7497    7.9810 C.ar    1  UNL1        0.0375
@<TRIPOS>BOND
     1    20    21    1
     2    21    19    1
     3    19    18    1
     4    18     1    1
     5     1     2   am
     6     2     3    2
     7     2     4    1
     8     4    15    1
     9    15    16    1
    10    15    17    1
    11     4     5    1
    12     5     6   am
    13     6     7    2
    14     6     8    1
    15     8     9    1
    16     9    10    1
    17    10    11    1
    18    11    22    1
    19    22    23    1
    20    23    24   ar
    21    24    25   ar
    22    25    26   ar
    23    26    29    1
    24    29    30    1
    25    30    31   ar
    26    31    32   ar
    27    32    33   ar
    28    33    34   ar
    29    34    35   ar
    30    26    27   ar
    31    27    28   ar
    32    11    12    1
    33    12    13    1
    34     8     1    1
    35    28    23   ar
    36    13     8    1
    37    35    30   ar
    38     5    14    1
@<TRIPOS>MOLECULE
*****
 35 38 0 0 0
SMALL
GASTEIGER

@<TRIPOS>ATOM
      1 N          61.1769   93.4351    1.9501 N.am    1  UNL1       -0.2734
      2 C          62.1363   94.0782    0.9930 C.2     1  UNL1        0.2438
      3 O          61.6580   95.1485    0.0572 O.2     1  UNL1       -0.2731
      4 C          63.5740   93.6510    0.9717 C.3     1  UNL1        0.1487
      5 N          64.0523   92.5807    1.9075 N.am    1  UNL1       -0.2971
      6 C          63.0930   91.9376    2.8645 C.2     1  UNL1        0.2389
      7 O          63.5713   90.8673    3.8003 O.2     1  UNL1       -0.2734
      8 C          61.6552   92.3648    2.8858 C.3     1  UNL1        0.1314
      9 C          60.2175   92.7919    2.9071 C.3     1  UNL1        0.0445
     10 C          59.2581   92.1488    3.8642 C.3     1  UNL1        0.0745
     11 N          59.7365   91.0785    4.7999 N.3     1  UNL1       -0.2688
     12 C          61.1742   90.6514    4.7786 C.3     1  UNL1        0.0745
     13 C          62.1335   91.2945    3.8216 C.3     1  UNL1        0.0445
     14 H          64.9960   92.3003    1.8935 H       1  UNL1        0.1499
     15 C          64.5335   94.2941    0.0146 C.3     1  UNL1        0.0269
     16 C          65.5377   95.2897    0.5148 C.3     1  UNL1        0.0022
     17 C          64.4886   93.9416   -1.4427 C.3     1  UNL1        0.0022
     18 C          59.7392   93.8622    1.9713 C.3     1  UNL1        0.0938
     19 C          58.9907   94.0408    0.6838 C.3     1  UNL1        0.0215
     20 C          57.5050   92.6852   -0.9610 C.3     1  UNL1        0.0001
     21 C          58.8095   92.8777   -0.2460 C.3     1  UNL1        0.0018
     22 C          58.7770   90.4354    5.7570 C.3     1  UNL1        0.0992
     23 C          59.2956   89.6231    6.9064 C.ar    1  UNL1       -0.0059
     24 C          58.9954   88.1554    6.9834 C.ar    1  UNL1        0.0002
     25 C          59.5140   87.3431    8.1329 C.ar    1  UNL1        0.0372
     26 C          60.3326   87.9984    9.2054 C.ar    1  UNL1        0.1453
     27 C          60.6328   89.4661    9.1284 C.ar    1  UNL1        0.0372
     28 C          60.1143   90.2784    7.9790 C.ar    1  UNL1        0.0002
     29 O          60.8512   87.1861   10.3548 O.3     1  UNL1       -0.4535
     30 C          61.8121   86.0617   10.1054 C.ar    1  UNL1        0.1453
     31 C          62.4141   85.8776    8.7439 C.ar    1  UNL1        0.0375
     32 C          63.3751   84.7532    8.4945 C.ar    1  UNL1        0.0031
     33 C          63.7341   83.8129    9.6066 C.ar    1  UNL1        0.0002
     34 C          63.1321   83.9969   10.9682 C.ar    1  UNL1        0.0031
     35 C          62.1711   85.1213   11.2176 C.ar    1  UNL1        0.0375
@<TRIPOS>BOND
     1    20    21    1
     2    21    19    1
     3    19    18    1
     4    18     1    1
     5     1     2   am
     6     2     3    2
     7     2     4    1
     8     4    15    1
     9    15    16    1
    10    15    17    1
    11     4     5    1
    12     5     6   am
    13     6     7    2
    14     6     8    1
    15     8     9    1
    16     9    10    1
    17    10    11    1
    18    11    22    1
    19    22    23    1
    20    23    24   ar
    21    24    25   ar
    22    25    26   ar
    23    26    29    1
    24    29    30    1
    25    30    31   ar
    26    31    32   ar
    27    32    33   ar
    28    33    34   ar
    29    34    35   ar
    30    26    27   ar
    31    27    28   ar
    32    11    12    1
    33    12    13    1
    34     8     1    1
    35    28    23   ar
    36    13     8    1
    37    35    30   ar
    38     5    14    1
