@<TRIPOS>MOLECULE
*****
 36 41 0 0 0
SMALL
GASTEIGER

@<TRIPOS>ATOM
      1 C          62.0361   92.8603    1.1297 C.2     1  UNL1       -0.0378
      2 C          62.8713   92.0126    2.0429 C.2     1  UNL1       -0.0080
      3 C          62.2772   91.4583    3.3038 C.2     1  UNL1        0.0022
      4 C          60.8479   91.7517    3.6515 C.2     1  UNL1        0.0350
      5 C          59.9949   91.3465    4.8170 C.2     1  UNL1        0.1040
      6 N          58.6325   91.9437    4.6242 N.2     1  UNL1       -0.1483
      7 N          58.6435   92.7180    3.3395 N.2     1  UNL1       -0.1520
      8 C          60.0127   92.5994    2.7384 C.2     1  UNL1        0.0860
      9 C          60.6067   93.1536    1.4775 C.3     1  UNL1        0.0697
     10 C          64.9498   95.6130   -4.4151 C.ar    1  UNL1        0.1385
     11 C          65.9049   96.6406   -3.8843 C.ar    1  UNL1        0.0382
     12 C          66.0322   96.8528   -2.4049 C.ar    1  UNL1        0.0175
     13 C          65.2045   96.0374   -1.4563 C.ar    1  UNL1        0.0469
     14 C          64.2494   95.0097   -1.9870 C.ar    1  UNL1        0.0022
     15 C          64.1220   94.7975   -3.4664 C.ar    1  UNL1        0.0343
     16 C          63.5697   94.3610   -0.8178 C.3     1  UNL1        0.0928
     17 C          62.7196   93.4282   -1.6284 C.3     1  UNL1        0.0179
     18 C          62.6301   93.4145   -0.1311 C.3     1  UNL1        0.0315
     19 C          64.1047   94.9877    0.4356 C.2     1  UNL1        0.2293
     20 O          63.7004   94.6394    1.8375 O.2     1  UNL1       -0.2744
     21 N          65.1151   96.0238    0.0411 N.am    1  UNL1       -0.2839
     22 H          65.6293   96.5946    0.6567 H       1  UNL1        0.1549
     23 C          65.8505   94.5908   -6.6273 C.3     1  UNL1        0.2525
     24 O          64.8224   95.4007   -5.8945 O.3     1  UNL1       -0.4714
     25 C          60.4283   90.4938    5.9724 C.2     1  UNL1        0.0209
     26 C          59.4499   89.5641    6.6270 C.2     1  UNL1        0.0016
     27 C          59.8833   88.7113    7.7824 C.ar    1  UNL1        0.0000
     28 C          60.4568   89.3502    9.0124 C.ar    1  UNL1       -0.0003
     29 C          60.8902   88.4975   10.1679 C.ar    1  UNL1       -0.0029
     30 C          60.7499   87.0060   10.0933 C.ar    1  UNL1       -0.0061
     31 C          60.1764   86.3671    8.8634 C.ar    1  UNL1       -0.0029
     32 C          59.7430   87.2198    7.7079 C.ar    1  UNL1       -0.0003
     33 C          61.1832   86.1533   11.2488 C.3     1  UNL1        0.0992
     34 N          62.4082   85.2958   11.1303 N.3     1  UNL1       -0.2665
     35 C          62.9609   84.9604    9.7768 C.3     1  UNL1        0.0899
     36 C          63.0805   84.7736   12.3654 C.3     1  UNL1        0.0899
@<TRIPOS>BOND
     1    23    24    1
     2    24    10    1
     3    10    11   ar
     4    11    12   ar
     5    12    13   ar
     6    13    14   ar
     7    14    15   ar
     8    14    16    1
     9    16    17    1
    10    17    18    1
    11    18     1    1
    12     1     2    2
    13     2     3    1
    14     3     4    2
    15     4     5    1
    16     5    25    1
    17    25    26    2
    18    26    27    1
    19    27    28   ar
    20    28    29   ar
    21    29    30   ar
    22    30    33    1
    23    33    34    1
    24    34    35    1
    25    34    36    1
    26    30    31   ar
    27    31    32   ar
    28     5     6    2
    29     6     7    1
    30     7     8    2
    31     8     9    1
    32    16    19    1
    33    19    20    2
    34    19    21   am
    35    15    10   ar
    36    18    16    1
    37     9     1    1
    38    21    13    1
    39     8     4    1
    40    32    27   ar
    41    21    22    1
@<TRIPOS>MOLECULE
*****
 36 41 0 0 0
SMALL
GASTEIGER

@<TRIPOS>ATOM
      1 C          61.2962   92.7510    2.1112 C.2     1  UNL1       -0.0378
      2 C          62.2246   91.7725    2.7674 C.2     1  UNL1       -0.0080
      3 C          61.7635   90.9826    3.9563 C.2     1  UNL1        0.0022
      4 C          60.3741   91.1712    4.4890 C.2     1  UNL1        0.0350
      5 C          59.6448   90.5387    5.6371 C.2     1  UNL1        0.1040
      6 N          58.2657   91.1262    5.6905 N.2     1  UNL1       -0.1483
      7 N          58.1426   92.1219    4.5754 N.2     1  UNL1       -0.1520
      8 C          59.4457   92.1497    3.8328 C.2     1  UNL1        0.0860
      9 C          59.9067   92.9396    2.6439 C.3     1  UNL1        0.0697
     10 C          63.7144   96.4174   -3.1350 C.ar    1  UNL1        0.1385
     11 C          65.0833   96.8558   -2.7063 C.ar    1  UNL1        0.0382
     12 C          65.6115   96.4564   -1.3603 C.ar    1  UNL1        0.0175
     13 C          64.7708   95.6185   -0.4432 C.ar    1  UNL1        0.0469
     14 C          63.4019   95.1800   -0.8719 C.ar    1  UNL1        0.0022
     15 C          62.8736   95.5795   -2.2178 C.ar    1  UNL1        0.0343
     16 C          62.8073   94.3652    0.2382 C.3     1  UNL1        0.0928
     17 C          61.5058   94.0848   -0.4528 C.3     1  UNL1        0.0179
     18 C          61.7572   93.5409    0.9223 C.3     1  UNL1        0.0315
     19 C          63.8088   94.3000    1.3530 C.2     1  UNL1        0.2293
     20 O          63.6284   93.5856    2.6596 O.2     1  UNL1       -0.2744
     21 N          65.0223   95.0746    0.9319 N.am    1  UNL1       -0.2839
     22 H          65.8402   95.2034    1.4645 H       1  UNL1        0.1549
     23 C          61.8477   96.3183   -4.9394 C.3     1  UNL1        0.2525
     24 O          63.1861   96.8168   -4.4809 O.3     1  UNL1       -0.4714
     25 C          60.1977   89.5008    6.5683 C.2     1  UNL1        0.0209
     26 C          60.0074   89.6442    8.0492 C.2     1  UNL1        0.0016
     27 C          60.5602   88.6064    8.9806 C.ar    1  UNL1        0.0000
     28 C          61.3096   89.0254   10.2105 C.ar    1  UNL1       -0.0003
     29 C          61.8624   87.9876   11.1419 C.ar    1  UNL1       -0.0029
     30 C          61.6658   86.5309   10.8432 C.ar    1  UNL1       -0.0061
     31 C          60.9164   86.1119    9.6132 C.ar    1  UNL1       -0.0029
     32 C          60.3636   87.1496    8.6819 C.ar    1  UNL1       -0.0003
     33 C          62.2187   85.4931   11.7745 C.3     1  UNL1        0.0992
     34 N          62.7600   84.2059   11.2269 N.3     1  UNL1       -0.2665
     35 C          62.4721   82.9121   11.9291 C.3     1  UNL1        0.0899
     36 C          63.5893   84.2124    9.9770 C.3     1  UNL1        0.0899
@<TRIPOS>BOND
     1    23    24    1
     2    24    10    1
     3    10    11   ar
     4    11    12   ar
     5    12    13   ar
     6    13    14   ar
     7    14    15   ar
     8    14    16    1
     9    16    17    1
    10    17    18    1
    11    18     1    1
    12     1     2    2
    13     2     3    1
    14     3     4    2
    15     4     5    1
    16     5    25    1
    17    25    26    2
    18    26    27    1
    19    27    28   ar
    20    28    29   ar
    21    29    30   ar
    22    30    33    1
    23    33    34    1
    24    34    35    1
    25    34    36    1
    26    30    31   ar
    27    31    32   ar
    28     5     6    2
    29     6     7    1
    30     7     8    2
    31     8     9    1
    32    16    19    1
    33    19    20    2
    34    19    21   am
    35    15    10   ar
    36    18    16    1
    37     9     1    1
    38    21    13    1
    39     8     4    1
    40    32    27   ar
    41    21    22    1
@<TRIPOS>MOLECULE
*****
 36 41 0 0 0
SMALL
GASTEIGER

@<TRIPOS>ATOM
      1 C          61.5316   94.7399    0.0630 C.2     1  UNL1       -0.0378
      2 C          61.4581   94.2089    1.4639 C.2     1  UNL1       -0.0080
      3 C          62.5212   94.5688    2.4592 C.2     1  UNL1        0.0022
      4 C          63.6577   95.4597    2.0535 C.2     1  UNL1        0.0350
      5 C          64.8427   95.9824    2.8101 C.2     1  UNL1        0.1040
      6 N          65.6487   96.8364    1.8768 N.2     1  UNL1       -0.1483
      7 N          64.9617   96.8415    0.5433 N.2     1  UNL1       -0.1520
      8 C          63.7312   95.9907    0.6525 C.2     1  UNL1        0.0860
      9 C          62.6682   95.6308   -0.3427 C.3     1  UNL1        0.0697
     10 C          56.4667   93.3515   -4.3223 C.ar    1  UNL1        0.1385
     11 C          55.3525   94.2793   -3.9378 C.ar    1  UNL1        0.0382
     12 C          55.5316   95.2326   -2.7935 C.ar    1  UNL1        0.0175
     13 C          56.8247   95.2580   -2.0339 C.ar    1  UNL1        0.0469
     14 C          57.9389   94.3302   -2.4184 C.ar    1  UNL1        0.0022
     15 C          57.7599   93.3769   -3.5626 C.ar    1  UNL1        0.0343
     16 C          59.0915   94.5810   -1.4918 C.3     1  UNL1        0.0928
     17 C          60.0046   93.5560   -2.0965 C.3     1  UNL1        0.0179
     18 C          60.4687   94.3801   -0.9323 C.3     1  UNL1        0.0315
     19 C          58.6897   95.6637   -0.5346 C.2     1  UNL1        0.2293
     20 O          59.5396   96.2288    0.5646 O.2     1  UNL1       -0.2744
     21 N          57.2888   96.0822   -0.8696 N.am    1  UNL1       -0.2839
     22 H          56.7657   96.7759   -0.4067 H       1  UNL1        0.1549
     23 C          57.4006   92.1902   -6.4505 C.3     1  UNL1        0.2525
     24 O          56.2877   92.3982   -5.4665 O.3     1  UNL1       -0.4714
     25 C          65.1652   95.7005    4.2476 C.2     1  UNL1        0.0209
     26 C          65.3463   96.8350    5.2120 C.2     1  UNL1        0.0016
     27 C          65.6688   96.5532    6.6496 C.ar    1  UNL1        0.0000
     28 C          67.0022   95.9743    7.0196 C.ar    1  UNL1       -0.0003
     29 C          67.3247   95.6925    8.4571 C.ar    1  UNL1       -0.0029
     30 C          66.3138   95.9896    9.5247 C.ar    1  UNL1       -0.0061
     31 C          64.9804   96.5685    9.1547 C.ar    1  UNL1       -0.0029
     32 C          64.6579   96.8503    7.7172 C.ar    1  UNL1       -0.0003
     33 C          66.6364   95.7078   10.9622 C.3     1  UNL1        0.0992
     34 N          66.5135   94.3125   11.4989 N.3     1  UNL1       -0.2665
     35 C          66.5233   93.1437   10.5588 C.3     1  UNL1        0.0899
     36 C          66.3808   94.0860   12.9758 C.3     1  UNL1        0.0899
@<TRIPOS>BOND
     1    23    24    1
     2    24    10    1
     3    10    11   ar
     4    11    12   ar
     5    12    13   ar
     6    13    14   ar
     7    14    15   ar
     8    14    16    1
     9    16    17    1
    10    17    18    1
    11    18     1    1
    12     1     2    2
    13     2     3    1
    14     3     4    2
    15     4     5    1
    16     5    25    1
    17    25    26    2
    18    26    27    1
    19    27    28   ar
    20    28    29   ar
    21    29    30   ar
    22    30    33    1
    23    33    34    1
    24    34    35    1
    25    34    36    1
    26    30    31   ar
    27    31    32   ar
    28     5     6    2
    29     6     7    1
    30     7     8    2
    31     8     9    1
    32    16    19    1
    33    19    20    2
    34    19    21   am
    35    15    10   ar
    36    18    16    1
    37     9     1    1
    38    21    13    1
    39     8     4    1
    40    32    27   ar
    41    21    22    1
