@<TRIPOS>MOLECULE
*****
 34 37 0 0 0
SMALL
GASTEIGER

@<TRIPOS>ATOM
      1 C          65.7152   91.7566   12.9292 C.ar    1  UNL1        0.0949
      2 C          65.8186   90.9584   14.1950 C.ar    1  UNL1        0.1454
      3 F          67.0835   90.9903   15.0005 F       1  UNL1       -0.2040
      4 C          64.6570   90.1284   14.6551 C.ar    1  UNL1        0.0312
      5 C          63.3921   90.0966   13.8496 C.ar    1  UNL1        0.0204
      6 C          63.2886   90.8948   12.5838 C.ar    1  UNL1        0.0924
      7 C          64.4502   91.7248   12.1237 C.ar    1  UNL1        0.1598
      8 F          64.3469   92.5230   10.8579 F       1  UNL1       -0.2026
      9 C          66.8768   92.5867   12.4689 C.2     1  UNL1        0.2006
     10 O          68.2543   91.9944   12.4334 O.2     1  UNL1       -0.2866
     11 C          67.4031   93.9353    9.4072 C.2     1  UNL1        0.0659
     12 C          67.5513   94.7624    8.1646 C.2     1  UNL1        0.0573
     13 C          67.2031   96.2213    8.1888 C.2     1  UNL1        0.2361
     14 N          66.7069   96.8530    9.4555 N.2     1  UNL1       -0.0340
     15 C          66.5588   96.0259   10.6981 C.2     1  UNL1        0.3601
     16 N          66.0974   96.3694   12.0834 N.2     1  UNL1       -0.0342
     17 C          66.1603   95.1229   12.9154 C.2     1  UNL1        0.2354
     18 C          66.6606   94.0090   12.0443 C.2     1  UNL1        0.0799
     19 C          66.9069   94.5671   10.6739 C.3     1  UNL1        0.1729
     20 N          68.0994   91.0176    9.3588 N.1     1  UNL1       -0.1911
     21 C          67.7513   92.4765    9.3830 C.1     1  UNL1        0.0971
     22 N          62.0237   90.8629   11.7783 N.pl3   1  UNL1       -0.2127
     23 H          61.4250   91.6444   11.7709 H       1  UNL1        0.1738
     24 S          61.6710   89.6404   10.9840 S.O2    1  UNL1        0.0759
     25 O          60.6059   89.2984   11.9833 O.2     1  UNL1       -0.1499
     26 O          62.7360   89.9824    9.9846 O.2     1  UNL1       -0.1499
     27 C          61.3183   88.4179   10.1896 C.ar    1  UNL1        0.1547
     28 C          60.3431   88.5168    9.0541 C.ar    1  UNL1        0.0521
     29 C          59.9904   87.2943    8.2597 C.ar    1  UNL1        0.1416
     30 F          59.0151   87.3933    7.1243 F       1  UNL1       -0.2041
     31 C          60.6129   85.9729    8.6007 C.ar    1  UNL1        0.0320
     32 C          61.5881   85.8740    9.7361 C.ar    1  UNL1        0.0333
     33 C          61.9408   87.0965   10.5306 C.ar    1  UNL1        0.1590
     34 F          62.9161   86.9975   11.6660 F       1  UNL1       -0.2027
@<TRIPOS>BOND
     1    20    21    3
     2    21    11    1
     3    11    12    2
     4    12    13    1
     5    13    14    2
     6    14    15    1
     7    15    16    2
     8    16    17    1
     9    17    18    2
    10    18     9    1
    11     9    10    2
    12     9     1    1
    13     1     2   ar
    14     2     3    1
    15     2     4   ar
    16     4     5   ar
    17     5     6   ar
    18     6    22    1
    19    22    24    1
    20    24    25    2
    21    24    26    2
    22    24    27    1
    23    27    28   ar
    24    28    29   ar
    25    29    30    1
    26    29    31   ar
    27    31    32   ar
    28    32    33   ar
    29    33    34    1
    30     6     7   ar
    31     7     8    1
    32    18    19    1
    33    19    11    1
    34    19    15    1
    35     7     1   ar
    36    33    27   ar
    37    22    23    1
@<TRIPOS>MOLECULE
*****
 34 37 0 0 0
SMALL
GASTEIGER

@<TRIPOS>ATOM
      1 C          61.8106   88.9515   11.1099 C.ar    1  UNL1        0.0949
      2 C          60.6537   89.2712   10.2101 C.ar    1  UNL1        0.1454
      3 F          59.9471   90.5882   10.3364 F       1  UNL1       -0.2040
      4 C          60.2036   88.2737    9.1843 C.ar    1  UNL1        0.0312
      5 C          60.9103   86.9567    9.0580 C.ar    1  UNL1        0.0204
      6 C          62.0672   86.6370    9.9578 C.ar    1  UNL1        0.0924
      7 C          62.5173   87.6344   10.9837 C.ar    1  UNL1        0.1598
      8 F          63.6741   87.3148   11.8834 F       1  UNL1       -0.2026
      9 C          62.2608   89.9489   12.1359 C.2     1  UNL1        0.2006
     10 O          61.6135   89.9774   13.4886 O.2     1  UNL1       -0.2866
     11 C          64.9544   90.7413   14.0297 C.2     1  UNL1        0.0659
     12 C          66.2115   91.2574   14.6647 C.2     1  UNL1        0.0573
     13 C          67.0513   92.2731   13.9483 C.2     1  UNL1        0.2361
     14 N          66.6340   92.7726   12.5969 N.2     1  UNL1       -0.0340
     15 C          65.3770   92.2564   11.9619 C.2     1  UNL1        0.3601
     16 N          64.7170   92.5611   10.6498 N.2     1  UNL1       -0.0342
     17 C          63.4694   91.7338   10.5552 C.2     1  UNL1        0.2354
     18 C          63.3582   90.9178   11.8089 C.2     1  UNL1        0.0799
     19 C          64.5372   91.2408   12.6783 C.3     1  UNL1        0.1729
     20 N          63.2748   88.7100   15.4625 N.1     1  UNL1       -0.1911
     21 C          64.1146   89.7257   14.7461 C.1     1  UNL1        0.0971
     22 N          62.7738   85.3199    9.8316 N.pl3   1  UNL1       -0.2127
     23 H          63.2400   85.0895    8.9956 H       1  UNL1        0.1738
     24 S          62.7703   84.3539   10.9791 S.O2    1  UNL1        0.0759
     25 O          63.9868   83.6808   10.4162 O.2     1  UNL1       -0.1499
     26 O          61.5537   85.0270   11.5420 O.2     1  UNL1       -0.1499
     27 C          62.7666   83.3880   12.1266 C.ar    1  UNL1        0.1547
     28 C          62.5305   81.9278   11.8771 C.ar    1  UNL1        0.0521
     29 C          62.5268   80.9617   13.0246 C.ar    1  UNL1        0.1416
     30 F          62.2906   79.5016   12.7750 F       1  UNL1       -0.2041
     31 C          62.7593   81.4558   14.4216 C.ar    1  UNL1        0.0320
     32 C          62.9955   82.9160   14.6711 C.ar    1  UNL1        0.0333
     33 C          62.9991   83.8820   13.5237 C.ar    1  UNL1        0.1590
     34 F          63.2353   85.3422   13.7732 F       1  UNL1       -0.2027
@<TRIPOS>BOND
     1    20    21    3
     2    21    11    1
     3    11    12    2
     4    12    13    1
     5    13    14    2
     6    14    15    1
     7    15    16    2
     8    16    17    1
     9    17    18    2
    10    18     9    1
    11     9    10    2
    12     9     1    1
    13     1     2   ar
    14     2     3    1
    15     2     4   ar
    16     4     5   ar
    17     5     6   ar
    18     6    22    1
    19    22    24    1
    20    24    25    2
    21    24    26    2
    22    24    27    1
    23    27    28   ar
    24    28    29   ar
    25    29    30    1
    26    29    31   ar
    27    31    32   ar
    28    32    33   ar
    29    33    34    1
    30     6     7   ar
    31     7     8    1
    32    18    19    1
    33    19    11    1
    34    19    15    1
    35     7     1   ar
    36    33    27   ar
    37    22    23    1
@<TRIPOS>MOLECULE
*****
 34 37 0 0 0
SMALL
GASTEIGER

@<TRIPOS>ATOM
      1 C          63.4830   89.7159   12.5708 C.ar    1  UNL1        0.0949
      2 C          62.7962   89.4340   11.2673 C.ar    1  UNL1        0.1454
      3 F          62.4282   90.5651   10.3535 F       1  UNL1       -0.2040
      4 C          62.4775   88.0210   10.8779 C.ar    1  UNL1        0.0312
      5 C          62.8455   86.8899   11.7917 C.ar    1  UNL1        0.0204
      6 C          63.5323   87.1717   13.0951 C.ar    1  UNL1        0.0924
      7 C          63.8510   88.5848   13.4846 C.ar    1  UNL1        0.1598
      8 F          64.5377   88.8667   14.7880 F       1  UNL1       -0.2026
      9 C          63.8017   91.1290   12.9604 C.2     1  UNL1        0.2006
     10 O          62.7176   92.0267   13.4786 O.2     1  UNL1       -0.2866
     11 C          65.9076   92.0427   15.4505 C.2     1  UNL1        0.0659
     12 C          67.0138   92.5015   16.3536 C.2     1  UNL1        0.0573
     13 C          68.3186   92.9563   15.7700 C.2     1  UNL1        0.2361
     14 N          68.5172   92.9525   14.2832 N.2     1  UNL1       -0.0340
     15 C          67.4110   92.4937   13.3801 C.2     1  UNL1        0.3601
     16 N          67.3157   92.3802   11.8874 N.2     1  UNL1       -0.0342
     17 C          65.9521   91.8551   11.5485 C.2     1  UNL1        0.2354
     18 C          65.2046   91.6442   12.8317 C.2     1  UNL1        0.0799
     19 C          66.1062   92.0388   13.9637 C.3     1  UNL1        0.1729
     20 N          63.2980   91.1329   16.6177 N.1     1  UNL1       -0.1911
     21 C          64.6028   91.5878   16.0341 C.1     1  UNL1        0.0971
     22 N          63.9003   86.0406   14.0090 N.pl3   1  UNL1       -0.2127
     23 H          64.3822   86.2225   14.8480 H       1  UNL1        0.1738
     24 S          63.5340   84.6324   13.6445 S.O2    1  UNL1        0.0759
     25 O          64.9760   84.3302   13.3630 O.2     1  UNL1       -0.1499
     26 O          62.0920   84.9347   13.9260 O.2     1  UNL1       -0.1499
     27 C          63.1676   83.2243   13.2801 C.ar    1  UNL1        0.1547
     28 C          63.3480   82.7432   11.8708 C.ar    1  UNL1        0.0521
     29 C          62.9816   81.3350   11.5063 C.ar    1  UNL1        0.1416
     30 F          63.1621   80.8540   10.0970 F       1  UNL1       -0.2041
     31 C          62.4348   80.4079   12.5510 C.ar    1  UNL1        0.0320
     32 C          62.2544   80.8891   13.9603 C.ar    1  UNL1        0.0333
     33 C          62.6208   82.2972   14.3248 C.ar    1  UNL1        0.1590
     34 F          62.4404   82.7783   15.7341 F       1  UNL1       -0.2027
@<TRIPOS>BOND
     1    20    21    3
     2    21    11    1
     3    11    12    2
     4    12    13    1
     5    13    14    2
     6    14    15    1
     7    15    16    2
     8    16    17    1
     9    17    18    2
    10    18     9    1
    11     9    10    2
    12     9     1    1
    13     1     2   ar
    14     2     3    1
    15     2     4   ar
    16     4     5   ar
    17     5     6   ar
    18     6    22    1
    19    22    24    1
    20    24    25    2
    21    24    26    2
    22    24    27    1
    23    27    28   ar
    24    28    29   ar
    25    29    30    1
    26    29    31   ar
    27    31    32   ar
    28    32    33   ar
    29    33    34    1
    30     6     7   ar
    31     7     8    1
    32    18    19    1
    33    19    11    1
    34    19    15    1
    35     7     1   ar
    36    33    27   ar
    37    22    23    1
@<TRIPOS>MOLECULE
*****
 34 37 0 0 0
SMALL
GASTEIGER

@<TRIPOS>ATOM
      1 C          62.6549   86.5237   11.9349 C.ar    1  UNL1        0.0949
      2 C          61.6426   86.1558   10.8909 C.ar    1  UNL1        0.1454
      3 F          61.4823   84.7240   10.4733 F       1  UNL1       -0.2040
      4 C          60.7907   87.2197   10.2645 C.ar    1  UNL1        0.0312
      5 C          60.9510   88.6514   10.6821 C.ar    1  UNL1        0.0204
      6 C          61.9633   89.0193   11.7261 C.ar    1  UNL1        0.0924
      7 C          62.8152   87.9555   12.3524 C.ar    1  UNL1        0.1598
      8 F          63.8275   88.3233   13.3965 F       1  UNL1       -0.2026
      9 C          63.5069   85.4598   12.5613 C.2     1  UNL1        0.2006
     10 O          64.3324   85.7769   13.7728 O.2     1  UNL1       -0.2866
     11 C          62.3006   82.6076   13.9324 C.2     1  UNL1        0.0659
     12 C          61.8549   81.2269   14.3132 C.2     1  UNL1        0.0573
     13 C          62.0948   80.0773   13.3800 C.2     1  UNL1        0.2361
     14 N          62.7804   80.3083   12.0661 N.2     1  UNL1       -0.0340
     15 C          63.2261   81.6890   11.6853 C.2     1  UNL1        0.3601
     16 N          63.9214   82.2188   10.4663 N.2     1  UNL1       -0.0342
     17 C          64.1113   83.6958   10.6461 C.2     1  UNL1        0.2354
     18 C          63.5332   84.0789   11.9762 C.2     1  UNL1        0.0799
     19 C          62.9862   82.8386   12.6184 C.3     1  UNL1        0.1729
     20 N          61.8207   84.9069   15.7987 N.1     1  UNL1       -0.1911
     21 C          62.0606   83.7572   14.8655 C.1     1  UNL1        0.0971
     22 N          62.1236   90.4511   12.1436 N.pl3   1  UNL1       -0.2127
     23 H          61.3333   91.0333   12.2190 H       1  UNL1        0.1738
     24 S          63.4881   90.9957   12.4464 S.O2    1  UNL1        0.0759
     25 O          63.8714   90.8366   11.0049 O.2     1  UNL1       -0.1499
     26 O          63.1047   91.1548   13.8878 O.2     1  UNL1       -0.1499
     27 C          64.8525   91.5404   12.7492 C.ar    1  UNL1        0.1547
     28 C          65.5961   91.0681   13.9633 C.ar    1  UNL1        0.0521
     29 C          66.9605   91.6127   14.2662 C.ar    1  UNL1        0.1416
     30 F          67.7040   91.1403   15.4803 F       1  UNL1       -0.2041
     31 C          67.5814   92.6296   13.3550 C.ar    1  UNL1        0.0320
     32 C          66.8378   93.1019   12.1409 C.ar    1  UNL1        0.0333
     33 C          65.4733   92.5573   11.8380 C.ar    1  UNL1        0.1590
     34 F          64.7298   93.0296   10.6239 F       1  UNL1       -0.2027
@<TRIPOS>BOND
     1    20    21    3
     2    21    11    1
     3    11    12    2
     4    12    13    1
     5    13    14    2
     6    14    15    1
     7    15    16    2
     8    16    17    1
     9    17    18    2
    10    18     9    1
    11     9    10    2
    12     9     1    1
    13     1     2   ar
    14     2     3    1
    15     2     4   ar
    16     4     5   ar
    17     5     6   ar
    18     6    22    1
    19    22    24    1
    20    24    25    2
    21    24    26    2
    22    24    27    1
    23    27    28   ar
    24    28    29   ar
    25    29    30    1
    26    29    31   ar
    27    31    32   ar
    28    32    33   ar
    29    33    34    1
    30     6     7   ar
    31     7     8    1
    32    18    19    1
    33    19    11    1
    34    19    15    1
    35     7     1   ar
    36    33    27   ar
    37    22    23    1
@<TRIPOS>MOLECULE
*****
 34 37 0 0 0
SMALL
GASTEIGER

@<TRIPOS>ATOM
      1 C          65.7702   91.9146   12.9636 C.ar    1  UNL1        0.0949
      2 C          65.9028   91.0609   14.1899 C.ar    1  UNL1        0.1454
      3 F          67.1757   91.0804   14.9832 F       1  UNL1       -0.2040
      4 C          64.7625   90.1878   14.6227 C.ar    1  UNL1        0.0312
      5 C          63.4897   90.1684   13.8293 C.ar    1  UNL1        0.0204
      6 C          63.3571   91.0221   12.6031 C.ar    1  UNL1        0.0924
      7 C          64.4974   91.8952   12.1703 C.ar    1  UNL1        0.1598
      8 F          64.3649   92.7489   10.9440 F       1  UNL1       -0.2026
      9 C          66.9106   92.7878   12.5307 C.2     1  UNL1        0.2006
     10 O          67.6178   93.6499   13.5340 O.2     1  UNL1       -0.2866
     11 C          66.8627   95.3989   10.3744 C.2     1  UNL1        0.0659
     12 C          66.9429   96.3790    9.2417 C.2     1  UNL1        0.0573
     13 C          67.4663   95.9406    7.9061 C.2     1  UNL1        0.2361
     14 N          67.9095   94.5220    7.7032 N.2     1  UNL1       -0.0340
     15 C          67.8294   93.5419    8.8358 C.2     1  UNL1        0.3601
     16 N          68.1905   92.0893    8.9337 N.2     1  UNL1       -0.0342
     17 C          67.8903   91.6300   10.3297 C.2     1  UNL1        0.2354
     18 C          67.3436   92.7987   11.0946 C.2     1  UNL1        0.0799
     19 C          67.3060   93.9804   10.1714 C.3     1  UNL1        0.1729
     20 N          65.8159   96.2758   13.0456 N.1     1  UNL1       -0.1911
     21 C          66.3393   95.8373   11.7100 C.1     1  UNL1        0.0971
     22 N          62.0842   91.0026   11.8097 N.pl3   1  UNL1       -0.2127
     23 H          61.4914   91.7887   11.8109 H       1  UNL1        0.1738
     24 S          61.7145   89.7856   11.0147 S.O2    1  UNL1        0.0759
     25 O          62.6592   90.2080    9.9288 O.2     1  UNL1       -0.1499
     26 O          60.7699   89.3631   12.1006 O.2     1  UNL1       -0.1499
     27 C          61.3448   88.5685   10.2197 C.ar    1  UNL1        0.1547
     28 C          60.3804   88.6838    9.0766 C.ar    1  UNL1        0.0521
     29 C          60.0106   87.4668    8.2816 C.ar    1  UNL1        0.1416
     30 F          59.0462   87.5822    7.1385 F       1  UNL1       -0.2041
     31 C          60.6052   86.1344    8.6296 C.ar    1  UNL1        0.0320
     32 C          61.5697   86.0191    9.7727 C.ar    1  UNL1        0.0333
     33 C          61.9395   87.2362   10.5677 C.ar    1  UNL1        0.1590
     34 F          62.9039   87.1208   11.7108 F       1  UNL1       -0.2027
@<TRIPOS>BOND
     1    20    21    3
     2    21    11    1
     3    11    12    2
     4    12    13    1
     5    13    14    2
     6    14    15    1
     7    15    16    2
     8    16    17    1
     9    17    18    2
    10    18     9    1
    11     9    10    2
    12     9     1    1
    13     1     2   ar
    14     2     3    1
    15     2     4   ar
    16     4     5   ar
    17     5     6   ar
    18     6    22    1
    19    22    24    1
    20    24    25    2
    21    24    26    2
    22    24    27    1
    23    27    28   ar
    24    28    29   ar
    25    29    30    1
    26    29    31   ar
    27    31    32   ar
    28    32    33   ar
    29    33    34    1
    30     6     7   ar
    31     7     8    1
    32    18    19    1
    33    19    11    1
    34    19    15    1
    35     7     1   ar
    36    33    27   ar
    37    22    23    1
@<TRIPOS>MOLECULE
*****
 34 37 0 0 0
SMALL
GASTEIGER

@<TRIPOS>ATOM
      1 C          63.4457   86.6884   12.7457 C.ar    1  UNL1        0.0949
      2 C          62.6472   86.5687   11.4815 C.ar    1  UNL1        0.1454
      3 F          62.5410   85.2451   10.7840 F       1  UNL1       -0.2040
      4 C          61.9551   87.7728   10.9150 C.ar    1  UNL1        0.0312
      5 C          62.0613   89.0965   11.6125 C.ar    1  UNL1        0.0204
      6 C          62.8598   89.2161   12.8767 C.ar    1  UNL1        0.0924
      7 C          63.5520   88.0121   13.4432 C.ar    1  UNL1        0.1598
      8 F          64.3505   88.1316   14.7074 F       1  UNL1       -0.2026
      9 C          64.1380   85.4843   13.3124 C.2     1  UNL1        0.2006
     10 O          64.9342   85.6034   14.5779 O.2     1  UNL1       -0.2866
     11 C          62.3382   82.7772   14.2628 C.2     1  UNL1        0.0659
     12 C          61.6408   81.4640   14.4603 C.2     1  UNL1        0.0573
     13 C          61.8282   80.3581   13.4644 C.2     1  UNL1        0.2361
     14 N          62.7130   80.5653   12.2710 N.2     1  UNL1       -0.0340
     15 C          63.4104   81.8785   12.0735 C.2     1  UNL1        0.3601
     16 N          64.3371   82.3717   11.0021 N.2     1  UNL1       -0.0342
     17 C          64.7224   83.7824   11.3357 C.2     1  UNL1        0.2354
     18 C          64.0339   84.1611   12.6134 C.2     1  UNL1        0.0799
     19 C          63.2230   82.9845   13.0694 C.3     1  UNL1        0.1729
     20 N          61.9635   84.9892   16.2545 N.1     1  UNL1       -0.1911
     21 C          62.1509   83.8832   15.2586 C.1     1  UNL1        0.0971
     22 N          62.9661   90.5398   13.5742 N.pl3   1  UNL1       -0.2127
     23 H          62.1540   91.0635   13.7627 H       1  UNL1        0.1738
     24 S          64.3096   91.0656   13.9845 S.O2    1  UNL1        0.0759
     25 O          63.9990   90.7425   15.4159 O.2     1  UNL1       -0.1499
     26 O          64.6203   91.3888   12.5531 O.2     1  UNL1       -0.1499
     27 C          65.6532   91.5914   14.3947 C.ar    1  UNL1        0.1547
     28 C          66.8344   91.4218   13.4858 C.ar    1  UNL1        0.0521
     29 C          68.1780   91.9476   13.8959 C.ar    1  UNL1        0.1416
     30 F          69.3591   91.7780   12.9869 F       1  UNL1       -0.2041
     31 C          68.3405   92.6430   15.2150 C.ar    1  UNL1        0.0320
     32 C          67.1593   92.8126   16.1239 C.ar    1  UNL1        0.0333
     33 C          65.8157   92.2868   15.7138 C.ar    1  UNL1        0.1590
     34 F          64.6346   92.4565   16.6227 F       1  UNL1       -0.2027
@<TRIPOS>BOND
     1    20    21    3
     2    21    11    1
     3    11    12    2
     4    12    13    1
     5    13    14    2
     6    14    15    1
     7    15    16    2
     8    16    17    1
     9    17    18    2
    10    18     9    1
    11     9    10    2
    12     9     1    1
    13     1     2   ar
    14     2     3    1
    15     2     4   ar
    16     4     5   ar
    17     5     6   ar
    18     6    22    1
    19    22    24    1
    20    24    25    2
    21    24    26    2
    22    24    27    1
    23    27    28   ar
    24    28    29   ar
    25    29    30    1
    26    29    31   ar
    27    31    32   ar
    28    32    33   ar
    29    33    34    1
    30     6     7   ar
    31     7     8    1
    32    18    19    1
    33    19    11    1
    34    19    15    1
    35     7     1   ar
    36    33    27   ar
    37    22    23    1
@<TRIPOS>MOLECULE
*****
 34 37 0 0 0
SMALL
GASTEIGER

@<TRIPOS>ATOM
      1 C          62.3753   88.4949   11.7941 C.ar    1  UNL1        0.0949
      2 C          61.6684   88.2107   10.5020 C.ar    1  UNL1        0.1454
      3 F          60.9544   89.3142    9.7791 F       1  UNL1       -0.2040
      4 C          61.6755   86.8229    9.9328 C.ar    1  UNL1        0.0312
      5 C          62.3895   85.7194   10.6557 C.ar    1  UNL1        0.0204
      6 C          63.0964   86.0037   11.9478 C.ar    1  UNL1        0.0924
      7 C          63.0892   87.3914   12.5169 C.ar    1  UNL1        0.1598
      8 F          63.7961   87.6758   13.8091 F       1  UNL1       -0.2026
      9 C          62.3682   89.8828   12.3633 C.2     1  UNL1        0.2006
     10 O          61.2738   90.3042   13.2984 O.2     1  UNL1       -0.2866
     11 C          64.6594   91.2957   14.4187 C.2     1  UNL1        0.0659
     12 C          65.7635   92.0436   15.1053 C.2     1  UNL1        0.0573
     13 C          66.6610   92.9488   14.3146 C.2     1  UNL1        0.2361
     14 N          66.4543   93.1062   12.8373 N.2     1  UNL1       -0.0340
     15 C          65.3502   92.3583   12.1507 C.2     1  UNL1        0.3601
     16 N          64.9077   92.3137   10.7181 N.2     1  UNL1       -0.0342
     17 C          63.7368   91.3810   10.6234 C.2     1  UNL1        0.2354
     18 C          63.4556   90.8491   11.9974 C.2     1  UNL1        0.0799
     19 C          64.4527   91.4531   12.9414 C.3     1  UNL1        0.1729
     20 N          62.8644   89.4853   16.0000 N.1     1  UNL1       -0.1911
     21 C          63.7619   90.3905   15.2093 C.1     1  UNL1        0.0971
     22 N          63.8103   84.9002   12.6706 N.pl3   1  UNL1       -0.2127
     23 H          64.4636   85.1152   13.3751 H       1  UNL1        0.1738
     24 S          63.5289   83.4691   12.3202 S.O2    1  UNL1        0.0759
     25 O          64.8100   83.4076   11.5424 O.2     1  UNL1       -0.1499
     26 O          62.2478   83.5306   13.0980 O.2     1  UNL1       -0.1499
     27 C          63.2474   82.0381   11.9698 C.ar    1  UNL1        0.1547
     28 C          62.8754   81.0616   13.0461 C.ar    1  UNL1        0.0521
     29 C          62.5939   79.6305   12.6958 C.ar    1  UNL1        0.1416
     30 F          62.2218   78.6542   13.7720 F       1  UNL1       -0.2041
     31 C          62.6843   79.1758   11.2692 C.ar    1  UNL1        0.0320
     32 C          63.0564   80.1523   10.1930 C.ar    1  UNL1        0.0333
     33 C          63.3379   81.5833   10.5433 C.ar    1  UNL1        0.1590
     34 F          63.7099   82.5597    9.4670 F       1  UNL1       -0.2027
@<TRIPOS>BOND
     1    20    21    3
     2    21    11    1
     3    11    12    2
     4    12    13    1
     5    13    14    2
     6    14    15    1
     7    15    16    2
     8    16    17    1
     9    17    18    2
    10    18     9    1
    11     9    10    2
    12     9     1    1
    13     1     2   ar
    14     2     3    1
    15     2     4   ar
    16     4     5   ar
    17     5     6   ar
    18     6    22    1
    19    22    24    1
    20    24    25    2
    21    24    26    2
    22    24    27    1
    23    27    28   ar
    24    28    29   ar
    25    29    30    1
    26    29    31   ar
    27    31    32   ar
    28    32    33   ar
    29    33    34    1
    30     6     7   ar
    31     7     8    1
    32    18    19    1
    33    19    11    1
    34    19    15    1
    35     7     1   ar
    36    33    27   ar
    37    22    23    1
@<TRIPOS>MOLECULE
*****
 34 37 0 0 0
SMALL
GASTEIGER

@<TRIPOS>ATOM
      1 C          60.9622   88.6705    9.3302 C.ar    1  UNL1        0.0949
      2 C          59.9438   88.3637    8.2725 C.ar    1  UNL1        0.1454
      3 F          58.9307   89.3994    7.8840 F       1  UNL1       -0.2040
      4 C          59.9386   87.0213    7.6033 C.ar    1  UNL1        0.0312
      5 C          60.9517   85.9856    7.9918 C.ar    1  UNL1        0.0204
      6 C          61.9701   86.2924    9.0495 C.ar    1  UNL1        0.0924
      7 C          61.9753   87.6348    9.7187 C.ar    1  UNL1        0.1598
      8 F          62.9936   87.9416   10.7765 F       1  UNL1       -0.2026
      9 C          60.9674   90.0129    9.9995 C.2     1  UNL1        0.2006
     10 O          59.6847   90.7720   10.1678 O.2     1  UNL1       -0.2866
     11 C          62.1527   89.9940   13.1720 C.2     1  UNL1        0.0659
     12 C          62.8882   90.1191   14.4733 C.2     1  UNL1        0.0573
     13 C          64.2155   90.8162   14.5206 C.2     1  UNL1        0.2361
     14 N          64.8073   91.3884   13.2667 N.2     1  UNL1       -0.0340
     15 C          64.0718   91.2633   11.9654 C.2     1  UNL1        0.3601
     16 N          64.4030   91.7243   10.5769 N.2     1  UNL1       -0.0342
     17 C          63.2804   91.3120    9.6715 C.2     1  UNL1        0.2354
     18 C          62.2554   90.5962   10.5004 C.2     1  UNL1        0.0799
     19 C          62.7445   90.5662   11.9181 C.3     1  UNL1        0.1729
     20 N          59.4981   88.5997   13.0774 N.1     1  UNL1       -0.1911
     21 C          60.8254   89.2969   13.1247 C.1     1  UNL1        0.0971
     22 N          62.9832   85.2567    9.4381 N.pl3   1  UNL1       -0.2127
     23 H          63.7363   85.0549    8.8369 H       1  UNL1        0.1738
     24 S          62.8490   84.5285   10.7425 S.O2    1  UNL1        0.0759
     25 O          61.5901   85.2889   11.0375 O.2     1  UNL1       -0.1499
     26 O          64.1078   83.7681   10.4476 O.2     1  UNL1       -0.1499
     27 C          62.7148   83.8003   12.0470 C.ar    1  UNL1        0.1547
     28 C          62.3003   82.3587   12.0620 C.ar    1  UNL1        0.0521
     29 C          62.1661   81.6304   13.3664 C.ar    1  UNL1        0.1416
     30 F          61.7516   80.1889   13.3814 F       1  UNL1       -0.2041
     31 C          62.4464   82.3436   14.6559 C.ar    1  UNL1        0.0320
     32 C          62.8609   83.7852   14.6409 C.ar    1  UNL1        0.0333
     33 C          62.9951   84.5135   13.3365 C.ar    1  UNL1        0.1590
     34 F          63.4096   85.9550   13.3215 F       1  UNL1       -0.2027
@<TRIPOS>BOND
     1    20    21    3
     2    21    11    1
     3    11    12    2
     4    12    13    1
     5    13    14    2
     6    14    15    1
     7    15    16    2
     8    16    17    1
     9    17    18    2
    10    18     9    1
    11     9    10    2
    12     9     1    1
    13     1     2   ar
    14     2     3    1
    15     2     4   ar
    16     4     5   ar
    17     5     6   ar
    18     6    22    1
    19    22    24    1
    20    24    25    2
    21    24    26    2
    22    24    27    1
    23    27    28   ar
    24    28    29   ar
    25    29    30    1
    26    29    31   ar
    27    31    32   ar
    28    32    33   ar
    29    33    34    1
    30     6     7   ar
    31     7     8    1
    32    18    19    1
    33    19    11    1
    34    19    15    1
    35     7     1   ar
    36    33    27   ar
    37    22    23    1
@<TRIPOS>MOLECULE
*****
 34 37 0 0 0
SMALL
GASTEIGER

@<TRIPOS>ATOM
      1 C          62.8554   86.1807   12.1226 C.ar    1  UNL1        0.0949
      2 C          62.0149   85.9051   10.9111 C.ar    1  UNL1        0.1454
      3 F          61.9487   84.5180   10.3439 F       1  UNL1       -0.2040
      4 C          61.2408   87.0166   10.2668 C.ar    1  UNL1        0.0312
      5 C          61.3071   88.4037   10.8339 C.ar    1  UNL1        0.0204
      6 C          62.1475   88.6793   12.0454 C.ar    1  UNL1        0.0924
      7 C          62.9216   87.5677   12.6897 C.ar    1  UNL1        0.1598
      8 F          63.7620   87.8432   13.9013 F       1  UNL1       -0.2026
      9 C          63.6296   85.0691   12.7670 C.2     1  UNL1        0.2006
     10 O          65.1065   84.9507   12.5339 O.2     1  UNL1       -0.2866
     11 C          63.1492   81.7676   12.1842 C.2     1  UNL1        0.0659
     12 C          62.8101   80.3066   12.1647 C.2     1  UNL1        0.0573
     13 C          62.0570   79.6961   13.3093 C.2     1  UNL1        0.2361
     14 N          61.6430   80.5467   14.4734 N.2     1  UNL1       -0.0340
     15 C          61.9820   82.0077   14.4929 C.2     1  UNL1        0.3601
     16 N          61.7081   83.0883   15.4964 N.2     1  UNL1       -0.0342
     17 C          62.2920   84.3667   14.9721 C.2     1  UNL1        0.2354
     18 C          62.9267   84.0761   13.6445 C.2     1  UNL1        0.0799
     19 C          62.7351   82.6182   13.3483 C.3     1  UNL1        0.1729
     20 N          64.6554   82.9886    9.8950 N.1     1  UNL1       -0.1911
     21 C          63.9023   82.3781   11.0396 C.1     1  UNL1        0.0971
     22 N          62.2137   90.0663   12.6126 N.pl3   1  UNL1       -0.2127
     23 H          61.3842   90.5454   12.8397 H       1  UNL1        0.1738
     24 S          63.5438   90.7235   12.8336 S.O2    1  UNL1        0.0759
     25 O          63.2157   90.8989   14.2867 O.2     1  UNL1       -0.1499
     26 O          63.8720   90.5480   11.3805 O.2     1  UNL1       -0.1499
     27 C          64.8740   91.3806   13.0545 C.ar    1  UNL1        0.1547
     28 C          65.6941   91.0274   14.2598 C.ar    1  UNL1        0.0521
     29 C          67.0242   91.6845   14.4809 C.ar    1  UNL1        0.1416
     30 F          67.8442   91.3312   15.6862 F       1  UNL1       -0.2041
     31 C          67.5344   92.6948   13.4965 C.ar    1  UNL1        0.0320
     32 C          66.7143   93.0480   12.2912 C.ar    1  UNL1        0.0333
     33 C          65.3842   92.3909   12.0702 C.ar    1  UNL1        0.1590
     34 F          64.5642   92.7442   10.8649 F       1  UNL1       -0.2027
@<TRIPOS>BOND
     1    20    21    3
     2    21    11    1
     3    11    12    2
     4    12    13    1
     5    13    14    2
     6    14    15    1
     7    15    16    2
     8    16    17    1
     9    17    18    2
    10    18     9    1
    11     9    10    2
    12     9     1    1
    13     1     2   ar
    14     2     3    1
    15     2     4   ar
    16     4     5   ar
    17     5     6   ar
    18     6    22    1
    19    22    24    1
    20    24    25    2
    21    24    26    2
    22    24    27    1
    23    27    28   ar
    24    28    29   ar
    25    29    30    1
    26    29    31   ar
    27    31    32   ar
    28    32    33   ar
    29    33    34    1
    30     6     7   ar
    31     7     8    1
    32    18    19    1
    33    19    11    1
    34    19    15    1
    35     7     1   ar
    36    33    27   ar
    37    22    23    1
