@<TRIPOS>MOLECULE
*****
 33 35 0 0 0
SMALL
GASTEIGER

@<TRIPOS>ATOM
      1 C          63.8666   88.7574   15.1130 C.3     1  UNL1        0.0236
      2 C          64.4014   89.9780   14.4243 C.3     1  UNL1        0.0998
      3 C          65.3103   90.9170   15.1607 C.3     1  UNL1        0.1271
      4 N          65.8451   92.1375   14.4720 N.ar    1  UNL1       -0.3092
      5 C          66.7534   93.2363   14.9386 C.ar    1  UNL1        0.1785
      6 N          66.9407   94.1968   13.8018 N.ar    1  UNL1       -0.2196
      7 C          66.1482   93.6918   12.6327 C.ar    1  UNL1        0.1494
      8 C          65.4711   92.4190   13.0469 C.ar    1  UNL1        0.0809
      9 C          64.5622   91.4800   12.3105 C.3     1  UNL1        0.1405
     10 N          64.0274   90.2595   12.9993 N.am    1  UNL1       -0.2580
     11 C          63.1185   89.3205   12.2628 C.2     1  UNL1        0.3080
     12 O          62.5837   88.1000   12.9515 O.2     1  UNL1       -0.2522
     13 N          62.7445   89.6020   10.8378 N.am    1  UNL1       -0.2681
     14 H          63.0956   90.4030   10.3858 H       1  UNL1        0.1564
     15 C          61.8356   88.6630   10.1014 C.ar    1  UNL1        0.0524
     16 C          60.3492   88.8538   10.1650 C.ar    1  UNL1        0.0171
     17 C          59.4403   87.9149    9.4286 C.ar    1  UNL1        0.0316
     18 C          60.0178   86.7851    8.6286 C.ar    1  UNL1        0.1497
     19 F          59.1089   85.8462    7.8922 F       1  UNL1       -0.2035
     20 C          61.5043   86.5943    8.5649 C.ar    1  UNL1        0.0970
     21 C          62.4132   87.5333    9.3014 C.ar    1  UNL1        0.0273
     22 C          62.0819   85.4646    7.7650 C.1     1  UNL1        0.1027
     23 N          62.6596   84.3349    6.9649 N.1     1  UNL1       -0.1908
     24 C          66.0501   94.3448   11.2859 C.2     1  UNL1        0.2650
     25 O          66.4141   93.5752   10.0510 O.2     1  UNL1       -0.2684
     26 N          65.5879   95.7674   11.1741 N.am    1  UNL1       -0.2939
     27 H          65.3490   96.2726   11.9846 H       1  UNL1        0.1500
     28 C          65.4899   96.4204    9.8273 C.3     1  UNL1        0.1676
     29 C          64.1546   96.8556    9.3002 C.3     1  UNL1        0.0303
     30 C          66.7270   96.6382    9.0073 C.3     1  UNL1        0.4135
     31 F          67.9641   96.8560    8.1875 F       1  UNL1       -0.1682
     32 F          65.9328   96.4256    7.7526 F       1  UNL1       -0.1682
     33 F          67.5211   96.8507   10.2620 F       1  UNL1       -0.1682
@<TRIPOS>BOND
     1     2     1    1
     2     2     3    1
     3     3     4    1
     4     4     5   ar
     5     5     6   ar
     6     6     7   ar
     7     7    24    1
     8    24    25    2
     9    24    26   am
    10    26    28    1
    11    28    29    1
    12    28    30    1
    13    30    31    1
    14    30    32    1
    15    30    33    1
    16     7     8   ar
    17     8     9    1
    18     9    10    1
    19    10    11   am
    20    11    12    2
    21    11    13   am
    22    13    15    1
    23    15    16   ar
    24    16    17   ar
    25    17    18   ar
    26    18    19    1
    27    18    20   ar
    28    20    22    1
    29    22    23    3
    30    20    21   ar
    31    10     2    1
    32    21    15   ar
    33     8     4   ar
    34    26    27    1
    35    13    14    1
@<TRIPOS>MOLECULE
*****
 33 35 0 0 0
SMALL
GASTEIGER

@<TRIPOS>ATOM
      1 C          62.7409   89.2086   15.5847 C.3     1  UNL1        0.0236
      2 C          63.6413   90.2317   14.9580 C.3     1  UNL1        0.0998
      3 C          64.5206   91.0866   15.8218 C.3     1  UNL1        0.1271
      4 N          65.4210   92.1096   15.1951 N.ar    1  UNL1       -0.3092
      5 C          66.3917   93.0887   15.7858 C.ar    1  UNL1        0.1785
      6 N          67.0126   93.8621   14.6605 N.ar    1  UNL1       -0.2196
      7 C          66.4257   93.3609   13.3743 C.ar    1  UNL1        0.1494
      8 C          65.4419   92.2778   13.7047 C.ar    1  UNL1        0.0809
      9 C          64.5626   91.4230   12.8410 C.3     1  UNL1        0.1405
     10 N          63.6622   90.3999   13.4677 N.am    1  UNL1       -0.2580
     11 C          62.7829   89.5451   12.6039 C.2     1  UNL1        0.3080
     12 O          61.8825   88.5221   13.2306 O.2     1  UNL1       -0.2522
     13 N          62.8038   89.7133   11.1136 N.am    1  UNL1       -0.2681
     14 H          63.3948   90.3848   10.7023 H       1  UNL1        0.1564
     15 C          61.9245   88.8585   10.2498 C.ar    1  UNL1        0.0524
     16 C          61.8606   87.3774   10.4783 C.ar    1  UNL1        0.0171
     17 C          60.9813   86.5225    9.6146 C.ar    1  UNL1        0.0316
     18 C          60.1658   87.1488    8.5224 C.ar    1  UNL1        0.1497
     19 F          59.2865   86.2939    7.6587 F       1  UNL1       -0.2035
     20 C          60.2297   88.6299    8.2940 C.ar    1  UNL1        0.0970
     21 C          61.1090   89.4847    9.1577 C.ar    1  UNL1        0.0273
     22 C          59.4143   89.2563    7.2019 C.1     1  UNL1        0.1027
     23 N          58.5988   89.8827    6.1098 N.1     1  UNL1       -0.1908
     24 C          66.7632   93.8560   11.9991 C.2     1  UNL1        0.2650
     25 O          66.6583   95.3182   11.6818 O.2     1  UNL1       -0.2684
     26 N          67.2055   92.8887   10.9414 N.am    1  UNL1       -0.2939
     27 H          67.2743   91.9290   11.1497 H       1  UNL1        0.1500
     28 C          67.5430   93.3838    9.5663 C.3     1  UNL1        0.1676
     29 C          66.8928   94.6274    9.0363 C.3     1  UNL1        0.0303
     30 C          68.5307   92.6354    8.7210 C.3     1  UNL1        0.4135
     31 F          69.5184   91.8871    7.8758 F       1  UNL1       -0.1682
     32 F          68.3110   93.6097    7.6017 F       1  UNL1       -0.1682
     33 F          68.7504   91.6613    9.8403 F       1  UNL1       -0.1682
@<TRIPOS>BOND
     1     2     1    1
     2     2     3    1
     3     3     4    1
     4     4     5   ar
     5     5     6   ar
     6     6     7   ar
     7     7    24    1
     8    24    25    2
     9    24    26   am
    10    26    28    1
    11    28    29    1
    12    28    30    1
    13    30    31    1
    14    30    32    1
    15    30    33    1
    16     7     8   ar
    17     8     9    1
    18     9    10    1
    19    10    11   am
    20    11    12    2
    21    11    13   am
    22    13    15    1
    23    15    16   ar
    24    16    17   ar
    25    17    18   ar
    26    18    19    1
    27    18    20   ar
    28    20    22    1
    29    22    23    3
    30    20    21   ar
    31    10     2    1
    32    21    15   ar
    33     8     4   ar
    34    26    27    1
    35    13    14    1
@<TRIPOS>MOLECULE
*****
 33 35 0 0 0
SMALL
GASTEIGER

@<TRIPOS>ATOM
      1 C          61.1261   86.4023    8.8996 C.3     1  UNL1        0.0236
      2 C          61.7719   87.4181    9.7947 C.3     1  UNL1        0.0998
      3 C          61.7716   88.8673    9.4072 C.3     1  UNL1        0.1271
      4 N          62.4175   89.8830   10.3023 N.ar    1  UNL1       -0.3092
      5 C          62.5723   91.3703   10.1847 C.ar    1  UNL1        0.1785
      6 N          63.3141   91.8562   11.3945 N.ar    1  UNL1       -0.2196
      7 C          63.6178   90.6692   12.2598 C.ar    1  UNL1        0.1494
      8 C          63.0636   89.4496   11.5848 C.ar    1  UNL1        0.0809
      9 C          63.0639   88.0006   11.9722 C.3     1  UNL1        0.1405
     10 N          62.4180   86.9848   11.0771 N.am    1  UNL1       -0.2580
     11 C          62.4183   85.5357   11.4646 C.2     1  UNL1        0.3080
     12 O          61.7725   84.5199   10.5696 O.2     1  UNL1       -0.2522
     13 N          63.0644   85.1024   12.7470 N.am    1  UNL1       -0.2681
     14 H          63.4883   85.7691   13.3345 H       1  UNL1        0.1564
     15 C          63.0647   83.6532   13.1345 C.ar    1  UNL1        0.0524
     16 C          64.3573   82.8952   13.2017 C.ar    1  UNL1        0.0171
     17 C          64.3577   81.4461   13.5892 C.ar    1  UNL1        0.0316
     18 C          63.0654   80.7551   13.9095 C.ar    1  UNL1        0.1497
     19 F          63.0658   79.3060   14.2969 F       1  UNL1       -0.2035
     20 C          61.7728   81.5131   13.8423 C.ar    1  UNL1        0.0970
     21 C          61.7725   82.9622   13.4548 C.ar    1  UNL1        0.0273
     22 C          60.4806   80.8222   14.1625 C.1     1  UNL1        0.1027
     23 N          59.1882   80.1313   14.4827 N.1     1  UNL1       -0.1908
     24 C          64.3474   90.6968   13.5700 C.2     1  UNL1        0.2650
     25 O          64.3868   89.4703   14.4326 O.2     1  UNL1       -0.2684
     26 N          65.0377   91.9511   14.0178 N.am    1  UNL1       -0.2939
     27 H          65.0119   92.7561   13.4517 H       1  UNL1        0.1500
     28 C          65.7674   91.9787   15.3280 C.3     1  UNL1        0.1676
     29 C          64.9972   92.0100   16.6148 C.3     1  UNL1        0.0303
     30 C          67.2672   91.9749   15.3516 C.3     1  UNL1        0.4135
     31 F          68.7670   91.9712   15.3752 F       1  UNL1       -0.1682
     32 F          67.2861   91.2522   14.0372 F       1  UNL1       -0.1682
     33 F          67.2484   92.6976   16.6658 F       1  UNL1       -0.1682
@<TRIPOS>BOND
     1     2     1    1
     2     2     3    1
     3     3     4    1
     4     4     5   ar
     5     5     6   ar
     6     6     7   ar
     7     7    24    1
     8    24    25    2
     9    24    26   am
    10    26    28    1
    11    28    29    1
    12    28    30    1
    13    30    31    1
    14    30    32    1
    15    30    33    1
    16     7     8   ar
    17     8     9    1
    18     9    10    1
    19    10    11   am
    20    11    12    2
    21    11    13   am
    22    13    15    1
    23    15    16   ar
    24    16    17   ar
    25    17    18   ar
    26    18    19    1
    27    18    20   ar
    28    20    22    1
    29    22    23    3
    30    20    21   ar
    31    10     2    1
    32    21    15   ar
    33     8     4   ar
    34    26    27    1
    35    13    14    1
@<TRIPOS>MOLECULE
*****
 33 35 0 0 0
SMALL
GASTEIGER

@<TRIPOS>ATOM
      1 C          61.0541   87.1628    8.8668 C.3     1  UNL1        0.0236
      2 C          61.8173   88.0936    9.7619 C.3     1  UNL1        0.0998
      3 C          61.9743   89.5368    9.3840 C.3     1  UNL1        0.1271
      4 N          62.7375   90.4676   10.2791 N.ar    1  UNL1       -0.3092
      5 C          63.0555   91.9294   10.1697 C.ar    1  UNL1        0.1785
      6 N          63.8581   92.3206   11.3750 N.ar    1  UNL1       -0.2196
      7 C          64.0362   91.1005   12.2293 C.ar    1  UNL1        0.1494
      8 C          63.3436   89.9553   11.5519 C.ar    1  UNL1        0.0809
      9 C          63.1866   88.5122   11.9297 C.3     1  UNL1        0.1405
     10 N          62.4234   87.5814   11.0347 N.am    1  UNL1       -0.2580
     11 C          62.2663   86.1382   11.4125 C.2     1  UNL1        0.3080
     12 O          61.5032   85.2074   10.5175 O.2     1  UNL1       -0.2522
     13 N          62.8724   85.6260   12.6853 N.am    1  UNL1       -0.2681
     14 H          63.3733   86.2369   13.2728 H       1  UNL1        0.1564
     15 C          62.7154   84.1828   13.0632 C.ar    1  UNL1        0.0524
     16 C          62.4334   83.8070   14.4877 C.ar    1  UNL1        0.0171
     17 C          62.2763   82.3639   14.8656 C.ar    1  UNL1        0.0316
     18 C          62.4013   81.2966   13.8190 C.ar    1  UNL1        0.1497
     19 F          62.2443   79.8535   14.1970 F       1  UNL1       -0.2035
     20 C          62.6834   81.6724   12.3945 C.ar    1  UNL1        0.0970
     21 C          62.8404   83.1156   12.0167 C.ar    1  UNL1        0.0273
     22 C          62.8084   80.6053   11.3479 C.1     1  UNL1        0.1027
     23 N          62.9333   79.5380   10.3013 N.1     1  UNL1       -0.1908
     24 C          64.7768   91.0369   13.5321 C.2     1  UNL1        0.2650
     25 O          64.7536   89.7780   14.3473 O.2     1  UNL1       -0.2684
     26 N          65.5408   92.2321   14.0198 N.am    1  UNL1       -0.2939
     27 H          65.5561   93.0584   13.4847 H       1  UNL1        0.1500
     28 C          66.2813   92.1684   15.3226 C.3     1  UNL1        0.1676
     29 C          65.5282   92.2404   16.6178 C.3     1  UNL1        0.0303
     30 C          67.7753   92.0328   15.3303 C.3     1  UNL1        0.4135
     31 F          69.2691   91.8971   15.3380 F       1  UNL1       -0.1682
     32 F          67.7869   92.2462   16.8151 F       1  UNL1       -0.1682
     33 F          67.7635   91.8193   13.8456 F       1  UNL1       -0.1682
@<TRIPOS>BOND
     1     2     1    1
     2     2     3    1
     3     3     4    1
     4     4     5   ar
     5     5     6   ar
     6     6     7   ar
     7     7    24    1
     8    24    25    2
     9    24    26   am
    10    26    28    1
    11    28    29    1
    12    28    30    1
    13    30    31    1
    14    30    32    1
    15    30    33    1
    16     7     8   ar
    17     8     9    1
    18     9    10    1
    19    10    11   am
    20    11    12    2
    21    11    13   am
    22    13    15    1
    23    15    16   ar
    24    16    17   ar
    25    17    18   ar
    26    18    19    1
    27    18    20   ar
    28    20    22    1
    29    22    23    3
    30    20    21   ar
    31    10     2    1
    32    21    15   ar
    33     8     4   ar
    34    26    27    1
    35    13    14    1
@<TRIPOS>MOLECULE
*****
 33 35 0 0 0
SMALL
GASTEIGER

@<TRIPOS>ATOM
      1 C          63.8815   88.5839   15.0657 C.3     1  UNL1        0.0236
      2 C          64.4821   89.8516   14.5342 C.3     1  UNL1        0.0998
      3 C          65.3936   90.6702   15.3998 C.3     1  UNL1        0.1271
      4 N          65.9941   91.9378   14.8683 N.ar    1  UNL1       -0.3092
      5 C          66.9204   92.9446   15.4835 C.ar    1  UNL1        0.1785
      6 N          67.1820   94.0158   14.4666 N.ar    1  UNL1       -0.2196
      7 C          66.4174   93.6711   13.2230 C.ar    1  UNL1        0.1494
      8 C          65.6832   92.3868   13.4712 C.ar    1  UNL1        0.0809
      9 C          64.7718   91.5682   12.6057 C.3     1  UNL1        0.1405
     10 N          64.1713   90.3006   13.1372 N.am    1  UNL1       -0.2580
     11 C          63.2598   89.4820   12.2716 C.2     1  UNL1        0.3080
     12 O          62.6593   88.2144   12.8031 O.2     1  UNL1       -0.2522
     13 N          62.9490   89.9309   10.8746 N.am    1  UNL1       -0.2681
     14 H          63.3432   90.7629   10.5258 H       1  UNL1        0.1564
     15 C          62.0375   89.1123   10.0090 C.ar    1  UNL1        0.0524
     16 C          61.9775   87.6234   10.1807 C.ar    1  UNL1        0.0171
     17 C          61.0661   86.8048    9.3151 C.ar    1  UNL1        0.0316
     18 C          60.2148   87.4751    8.2778 C.ar    1  UNL1        0.1497
     19 F          59.3034   86.6565    7.4123 F       1  UNL1       -0.2035
     20 C          60.2748   88.9640    8.1061 C.ar    1  UNL1        0.0970
     21 C          61.1863   89.7826    8.9718 C.ar    1  UNL1        0.0273
     22 C          59.4236   89.6344    7.0689 C.1     1  UNL1        0.1027
     23 N          58.5723   90.3047    6.0316 N.1     1  UNL1       -0.1908
     24 C          66.3915   94.4703   11.9539 C.2     1  UNL1        0.2650
     25 O          65.9604   95.9068   11.9809 O.2     1  UNL1       -0.2684
     26 N          66.7968   93.8331   10.6578 N.am    1  UNL1       -0.2939
     27 H          67.0797   92.8903   10.6401 H       1  UNL1        0.1500
     28 C          66.7709   94.6324    9.3889 C.3     1  UNL1        0.1676
     29 C          67.7383   94.3202    8.2859 C.3     1  UNL1        0.0303
     30 C          65.7774   95.7440    9.2227 C.3     1  UNL1        0.4135
     31 F          64.7841   96.8556    9.0565 F       1  UNL1       -0.1682
     32 F          64.6808   94.8340    9.6910 F       1  UNL1       -0.1682
     33 F          66.8741   96.6540    8.7544 F       1  UNL1       -0.1682
@<TRIPOS>BOND
     1     2     1    1
     2     2     3    1
     3     3     4    1
     4     4     5   ar
     5     5     6   ar
     6     6     7   ar
     7     7    24    1
     8    24    25    2
     9    24    26   am
    10    26    28    1
    11    28    29    1
    12    28    30    1
    13    30    31    1
    14    30    32    1
    15    30    33    1
    16     7     8   ar
    17     8     9    1
    18     9    10    1
    19    10    11   am
    20    11    12    2
    21    11    13   am
    22    13    15    1
    23    15    16   ar
    24    16    17   ar
    25    17    18   ar
    26    18    19    1
    27    18    20   ar
    28    20    22    1
    29    22    23    3
    30    20    21   ar
    31    10     2    1
    32    21    15   ar
    33     8     4   ar
    34    26    27    1
    35    13    14    1
@<TRIPOS>MOLECULE
*****
 33 35 0 0 0
SMALL
GASTEIGER

@<TRIPOS>ATOM
      1 C          64.9316   83.9114   15.6814 C.3     1  UNL1        0.0236
      2 C          64.3551   83.9902   14.2987 C.3     1  UNL1        0.0998
      3 C          64.1519   82.7379   13.4984 C.3     1  UNL1        0.1271
      4 N          63.5754   82.8167   12.1158 N.ar    1  UNL1       -0.3092
      5 C          63.2627   81.7611   11.0971 C.ar    1  UNL1        0.1785
      6 N          62.6961   82.4397    9.8854 N.ar    1  UNL1       -0.2196
      7 C          62.6586   83.9148   10.1551 C.ar    1  UNL1        0.1494
      8 C          63.2021   84.1478   11.5337 C.ar    1  UNL1        0.0809
      9 C          63.4053   85.4000   12.3341 C.3     1  UNL1        0.1405
     10 N          63.9817   85.3212   13.7166 N.am    1  UNL1       -0.2580
     11 C          64.1849   86.5735   14.5170 C.2     1  UNL1        0.3080
     12 O          64.7614   86.4947   15.8995 O.2     1  UNL1       -0.2522
     13 N          63.8116   87.9045   13.9348 N.am    1  UNL1       -0.2681
     14 H          63.4332   87.9562   13.0274 H       1  UNL1        0.1564
     15 C          64.0147   89.1568   14.7352 C.ar    1  UNL1        0.0524
     16 C          63.2349   89.3746   15.9979 C.ar    1  UNL1        0.0171
     17 C          63.4380   90.6268   16.7983 C.ar    1  UNL1        0.0316
     18 C          64.4209   91.6613   16.3360 C.ar    1  UNL1        0.1497
     19 F          64.6240   92.9135   17.1364 F       1  UNL1       -0.2035
     20 C          65.2008   91.4435   15.0733 C.ar    1  UNL1        0.0970
     21 C          64.9976   90.1912   14.2729 C.ar    1  UNL1        0.0273
     22 C          66.1837   92.4779   14.6109 C.1     1  UNL1        0.1027
     23 N          67.1667   93.5122   14.1484 N.1     1  UNL1       -0.1908
     24 C          62.1644   84.9713    9.2120 C.2     1  UNL1        0.2650
     25 O          62.7873   85.1162    7.8552 O.2     1  UNL1       -0.2684
     26 N          61.0474   85.8830    9.6257 N.am    1  UNL1       -0.2939
     27 H          60.6386   85.7879   10.5162 H       1  UNL1        0.1500
     28 C          60.5533   86.9394    8.6825 C.3     1  UNL1        0.1676
     29 C          59.7542   86.5515    7.4738 C.3     1  UNL1        0.0303
     30 C          60.8582   88.3840    8.9479 C.3     1  UNL1        0.4135
     31 F          61.1631   89.8285    9.2134 F       1  UNL1       -0.1682
     32 F          62.1312   87.9888    9.6361 F       1  UNL1       -0.1682
     33 F          59.5853   88.7791    8.2599 F       1  UNL1       -0.1682
@<TRIPOS>BOND
     1     2     1    1
     2     2     3    1
     3     3     4    1
     4     4     5   ar
     5     5     6   ar
     6     6     7   ar
     7     7    24    1
     8    24    25    2
     9    24    26   am
    10    26    28    1
    11    28    29    1
    12    28    30    1
    13    30    31    1
    14    30    32    1
    15    30    33    1
    16     7     8   ar
    17     8     9    1
    18     9    10    1
    19    10    11   am
    20    11    12    2
    21    11    13   am
    22    13    15    1
    23    15    16   ar
    24    16    17   ar
    25    17    18   ar
    26    18    19    1
    27    18    20   ar
    28    20    22    1
    29    22    23    3
    30    20    21   ar
    31    10     2    1
    32    21    15   ar
    33     8     4   ar
    34    26    27    1
    35    13    14    1
@<TRIPOS>MOLECULE
*****
 33 35 0 0 0
SMALL
GASTEIGER

@<TRIPOS>ATOM
      1 C          61.5752   85.9807    8.4935 C.3     1  UNL1        0.0236
      2 C          61.9722   87.0096    9.5103 C.3     1  UNL1        0.0998
      3 C          61.9790   88.4639    9.1425 C.3     1  UNL1        0.1271
      4 N          62.3760   89.4928   10.1593 N.ar    1  UNL1       -0.3092
      5 C          62.4771   90.9876   10.0877 C.ar    1  UNL1        0.1785
      6 N          62.9299   91.4862   11.4280 N.ar    1  UNL1       -0.2196
      7 C          63.1087   90.2994   12.3279 C.ar    1  UNL1        0.1494
      8 C          62.7663   89.0674   11.5437 C.ar    1  UNL1        0.0809
      9 C          62.7596   87.6132   11.9115 C.3     1  UNL1        0.1405
     10 N          62.3625   86.5844   10.8947 N.am    1  UNL1       -0.2580
     11 C          62.3558   85.1301   11.2625 C.2     1  UNL1        0.3080
     12 O          61.9588   84.1012   10.2458 O.2     1  UNL1       -0.2522
     13 N          62.7461   84.7048   12.6469 N.am    1  UNL1       -0.2681
     14 H          63.0067   85.3801   13.3142 H       1  UNL1        0.1564
     15 C          62.7394   83.2506   13.0147 C.ar    1  UNL1        0.0524
     16 C          64.0125   82.4588   12.9659 C.ar    1  UNL1        0.0171
     17 C          64.0058   81.0046   13.3337 C.ar    1  UNL1        0.0316
     18 C          62.7261   80.3422   13.7503 C.ar    1  UNL1        0.1497
     19 F          62.7195   78.8880   14.1181 F       1  UNL1       -0.2035
     20 C          61.4530   81.1339   13.7991 C.ar    1  UNL1        0.0970
     21 C          61.4598   82.5882   13.4313 C.ar    1  UNL1        0.0273
     22 C          60.1733   80.4716   14.2156 C.1     1  UNL1        0.1027
     23 N          58.8936   79.8092   14.6321 N.1     1  UNL1       -0.1908
     24 C          63.5519   90.3380   13.7604 C.2     1  UNL1        0.2650
     25 O          64.7282   91.1790   14.1591 O.2     1  UNL1       -0.2684
     26 N          62.8189   89.5355   14.7942 N.am    1  UNL1       -0.2939
     27 H          62.0469   88.9834   14.5325 H       1  UNL1        0.1500
     28 C          63.2622   89.5741   16.2266 C.3     1  UNL1        0.1676
     29 C          63.6787   90.8742   16.8481 C.3     1  UNL1        0.0303
     30 C          63.2891   88.3125   17.0377 C.3     1  UNL1        0.4135
     31 F          63.3160   87.0510   17.8489 F       1  UNL1       -0.1682
     32 F          63.4216   87.5064   15.7796 F       1  UNL1       -0.1682
     33 F          63.1567   89.1186   18.2957 F       1  UNL1       -0.1682
@<TRIPOS>BOND
     1     2     1    1
     2     2     3    1
     3     3     4    1
     4     4     5   ar
     5     5     6   ar
     6     6     7   ar
     7     7    24    1
     8    24    25    2
     9    24    26   am
    10    26    28    1
    11    28    29    1
    12    28    30    1
    13    30    31    1
    14    30    32    1
    15    30    33    1
    16     7     8   ar
    17     8     9    1
    18     9    10    1
    19    10    11   am
    20    11    12    2
    21    11    13   am
    22    13    15    1
    23    15    16   ar
    24    16    17   ar
    25    17    18   ar
    26    18    19    1
    27    18    20   ar
    28    20    22    1
    29    22    23    3
    30    20    21   ar
    31    10     2    1
    32    21    15   ar
    33     8     4   ar
    34    26    27    1
    35    13    14    1
@<TRIPOS>MOLECULE
*****
 33 35 0 0 0
SMALL
GASTEIGER

@<TRIPOS>ATOM
      1 C          63.4725   87.3511   17.2723 C.3     1  UNL1        0.0236
      2 C          63.3029   86.5318   16.0272 C.3     1  UNL1        0.0998
      3 C          62.8304   85.1113   16.1227 C.3     1  UNL1        0.1271
      4 N          62.6608   84.2921   14.8777 N.ar    1  UNL1       -0.3092
      5 C          62.2147   82.8765   14.6608 C.ar    1  UNL1        0.1785
      6 N          62.2418   82.6028   13.1862 N.ar    1  UNL1       -0.2196
      7 C          62.7048   83.8492   12.4918 C.ar    1  UNL1        0.1494
      8 C          62.9638   84.8933   13.5372 C.ar    1  UNL1        0.0809
      9 C          63.4363   86.3137   13.4418 C.3     1  UNL1        0.1405
     10 N          63.6058   87.1329   14.6868 N.am    1  UNL1       -0.2580
     11 C          64.0784   88.5534   14.5913 C.2     1  UNL1        0.3080
     12 O          64.2479   89.3727   15.8363 O.2     1  UNL1       -0.2522
     13 N          64.3812   89.1545   13.2509 N.am    1  UNL1       -0.2681
     14 H          64.2699   88.6168   12.4338 H       1  UNL1        0.1564
     15 C          64.8538   90.5750   13.1554 C.ar    1  UNL1        0.0524
     16 C          64.4170   91.4350   12.0066 C.ar    1  UNL1        0.0171
     17 C          64.8895   92.8554   11.9110 C.ar    1  UNL1        0.0316
     18 C          65.7987   93.4159   12.9642 C.ar    1  UNL1        0.1497
     19 F          66.2712   94.8363   12.8687 F       1  UNL1       -0.2035
     20 C          66.2354   92.5559   14.1130 C.ar    1  UNL1        0.0970
     21 C          65.7629   91.1354   14.2085 C.ar    1  UNL1        0.0273
     22 C          67.1446   93.1163   15.1662 C.1     1  UNL1        0.1027
     23 N          68.0537   93.6766   16.2196 N.1     1  UNL1       -0.1908
     24 C          62.8783   84.0214   11.0119 C.2     1  UNL1        0.2650
     25 O          63.7417   83.0666   10.2419 O.2     1  UNL1       -0.2684
     26 N          62.1884   85.1483   10.3018 N.am    1  UNL1       -0.2939
     27 H          61.6217   85.7749   10.8072 H       1  UNL1        0.1500
     28 C          62.3619   85.3203    8.8220 C.3     1  UNL1        0.1676
     29 C          63.7386   85.3560    8.2274 C.3     1  UNL1        0.0303
     30 C          61.1588   85.4567    7.9364 C.3     1  UNL1        0.4135
     31 F          59.9558   85.5931    7.0510 F       1  UNL1       -0.1682
     32 F          61.9568   84.9459    6.7735 F       1  UNL1       -0.1682
     33 F          60.3609   85.9676    9.0993 F       1  UNL1       -0.1682
@<TRIPOS>BOND
     1     2     1    1
     2     2     3    1
     3     3     4    1
     4     4     5   ar
     5     5     6   ar
     6     6     7   ar
     7     7    24    1
     8    24    25    2
     9    24    26   am
    10    26    28    1
    11    28    29    1
    12    28    30    1
    13    30    31    1
    14    30    32    1
    15    30    33    1
    16     7     8   ar
    17     8     9    1
    18     9    10    1
    19    10    11   am
    20    11    12    2
    21    11    13   am
    22    13    15    1
    23    15    16   ar
    24    16    17   ar
    25    17    18   ar
    26    18    19    1
    27    18    20   ar
    28    20    22    1
    29    22    23    3
    30    20    21   ar
    31    10     2    1
    32    21    15   ar
    33     8     4   ar
    34    26    27    1
    35    13    14    1
@<TRIPOS>MOLECULE
*****
 33 35 0 0 0
SMALL
GASTEIGER

@<TRIPOS>ATOM
      1 C          63.3348   86.4932   17.5425 C.3     1  UNL1        0.0236
      2 C          63.1833   85.8433   16.1990 C.3     1  UNL1        0.0998
      3 C          62.6957   84.4281   16.1012 C.3     1  UNL1        0.1271
      4 N          62.5442   83.7782   14.7579 N.ar    1  UNL1       -0.3092
      5 C          62.0894   82.4078   14.3514 C.ar    1  UNL1        0.1785
      6 N          62.1444   82.3262   12.8547 N.ar    1  UNL1       -0.2196
      7 C          62.6331   83.6461   12.3361 C.ar    1  UNL1        0.1494
      8 C          62.8802   84.5435   13.5123 C.ar    1  UNL1        0.0809
      9 C          63.3678   85.9587   13.6101 C.3     1  UNL1        0.1405
     10 N          63.5193   86.6085   14.9535 N.am    1  UNL1       -0.2580
     11 C          64.0069   88.0238   15.0513 C.2     1  UNL1        0.3080
     12 O          64.1584   88.6736   16.3947 O.2     1  UNL1       -0.2522
     13 N          64.3429   88.7890   13.8058 N.am    1  UNL1       -0.2681
     14 H          64.2435   88.3624   12.9241 H       1  UNL1        0.1564
     15 C          64.8305   90.2042   13.9036 C.ar    1  UNL1        0.0524
     16 C          65.2085   90.7767   15.2375 C.ar    1  UNL1        0.0171
     17 C          65.6961   92.1919   15.3353 C.ar    1  UNL1        0.0316
     18 C          65.8057   93.0345   14.0992 C.ar    1  UNL1        0.1497
     19 F          66.2933   94.4497   14.1970 F       1  UNL1       -0.2035
     20 C          65.4277   92.4620   12.7653 C.ar    1  UNL1        0.0970
     21 C          64.9401   91.0468   12.6675 C.ar    1  UNL1        0.0273
     22 C          65.5373   93.3046   11.5292 C.1     1  UNL1        0.1027
     23 N          65.6468   94.1472   10.2931 N.1     1  UNL1       -0.1908
     24 C          62.8387   84.0054   10.8943 C.2     1  UNL1        0.2650
     25 O          63.8537   83.2656   10.0744 O.2     1  UNL1       -0.2684
     26 N          62.0292   85.1046   10.2725 N.am    1  UNL1       -0.2939
     27 H          61.3630   85.5902   10.8107 H       1  UNL1        0.1500
     28 C          62.2348   85.4639    8.8309 C.3     1  UNL1        0.1676
     29 C          63.6210   85.5098    8.2597 C.3     1  UNL1        0.0303
     30 C          61.0542   85.7773    7.9602 C.3     1  UNL1        0.4135
     31 F          59.8736   86.0907    7.0895 F       1  UNL1       -0.1682
     32 F          61.7564   85.1614    6.7863 F       1  UNL1       -0.1682
     33 F          60.3520   86.3931    9.1339 F       1  UNL1       -0.1682
@<TRIPOS>BOND
     1     2     1    1
     2     2     3    1
     3     3     4    1
     4     4     5   ar
     5     5     6   ar
     6     6     7   ar
     7     7    24    1
     8    24    25    2
     9    24    26   am
    10    26    28    1
    11    28    29    1
    12    28    30    1
    13    30    31    1
    14    30    32    1
    15    30    33    1
    16     7     8   ar
    17     8     9    1
    18     9    10    1
    19    10    11   am
    20    11    12    2
    21    11    13   am
    22    13    15    1
    23    15    16   ar
    24    16    17   ar
    25    17    18   ar
    26    18    19    1
    27    18    20   ar
    28    20    22    1
    29    22    23    3
    30    20    21   ar
    31    10     2    1
    32    21    15   ar
    33     8     4   ar
    34    26    27    1
    35    13    14    1
