@<TRIPOS>MOLECULE
*****
 34 38 0 0 0
SMALL
GASTEIGER

@<TRIPOS>ATOM
      1 C          63.6782   88.9230   14.3200 C.ar    1  UNL1        0.0957
      2 C          63.0898   88.9086   15.6996 C.ar    1  UNL1        0.1191
      3 N          63.4037   90.0167   16.6606 N.ar    1  UNL1       -0.2223
      4 C          64.3061   91.1394   16.2420 C.ar    1  UNL1        0.1784
      5 N          64.7921   92.3598   16.9660 N.ar    1  UNL1       -0.2236
      6 C          65.6810   93.1286   16.0340 C.ar    1  UNL1        0.1066
      7 C          65.7443   92.3833   14.7337 C.ar    1  UNL1        0.0910
      8 C          64.8946   91.1539   14.8623 C.ar    1  UNL1        0.0988
      9 N          64.5806   90.0458   13.9013 N.ar    1  UNL1       -0.3481
     10 H          64.9669   90.0553   12.9958 H       1  UNL1        0.1661
     11 C          61.9093   86.2839   10.1026 C.3     1  UNL1        0.1537
     12 N          62.5512   86.6019   11.4205 N.ar    1  UNL1       -0.2487
     13 N          62.6458   87.9600   12.0503 N.ar    1  UNL1       -0.1677
     14 C          63.3643   87.8149   13.3590 C.ar    1  UNL1        0.1193
     15 C          63.7137   86.3672   13.5380 C.ar    1  UNL1        0.0382
     16 C          64.4246   85.6348   14.6372 C.ar    1  UNL1        0.0054
     17 C          64.6329   84.1527   14.5383 C.ar    1  UNL1        0.0298
     18 C          64.1304   83.4030   13.3402 C.ar    1  UNL1        0.1416
     19 F          64.3388   81.9207   13.2413 F       1  UNL1       -0.2041
     20 C          63.4196   84.1354   12.2410 C.ar    1  UNL1        0.0484
     21 C          63.2112   85.6175   12.3399 C.ar    1  UNL1        0.0817
     22 C          66.5210   92.7952   13.5183 C.2     1  UNL1        0.2489
     23 O          68.0178   92.6974   13.5161 O.2     1  UNL1       -0.2700
     24 N          65.8009   93.3047   12.3052 N.am    1  UNL1       -0.2999
     25 H          64.8185   93.3689   12.3066 H       1  UNL1        0.1498
     26 C          66.5776   93.7165   11.0898 C.3     1  UNL1        0.1028
     27 C          66.6269   95.1600   10.6848 C.3     1  UNL1        0.1617
     28 O          67.4037   95.5718    9.4694 O.3     1  UNL1       -0.3506
     29 C          68.1310   94.5402    8.6591 C.3     1  UNL1        0.1576
     30 C          68.0817   93.0967    9.0641 C.3     1  UNL1        0.0826
     31 N          68.8091   92.0651    8.2538 N.3     1  UNL1       -0.3201
     32 C          67.3050   92.6849   10.2794 C.3     1  UNL1        0.0402
     33 H          68.6682   91.1446    8.6699 H       1  UNL1        0.1189
     34 H          69.8054   92.2835    8.2407 H       1  UNL1        0.1189
@<TRIPOS>BOND
     1    11    12    1
     2    12    13   ar
     3    13    14   ar
     4    14     1    1
     5     1     2   ar
     6     2     3   ar
     7     3     4   ar
     8     4     5   ar
     9     5     6   ar
    10     6     7   ar
    11     7    22    1
    12    22    23    2
    13    22    24   am
    14    24    26    1
    15    26    27    1
    16    27    28    1
    17    28    29    1
    18    29    30    1
    19    30    31    1
    20    30    32    1
    21     7     8   ar
    22     8     9   ar
    23    14    15   ar
    24    15    16   ar
    25    16    17   ar
    26    17    18   ar
    27    18    19    1
    28    18    20   ar
    29    20    21   ar
    30    21    12   ar
    31     9     1   ar
    32    21    15   ar
    33     8     4    1
    34    32    26    1
    35    24    25    1
    36    31    33    1
    37    31    34    1
    38     9    10    1
@<TRIPOS>MOLECULE
*****
 34 38 0 0 0
SMALL
GASTEIGER

@<TRIPOS>ATOM
      1 C          62.5725   89.6513   12.0215 C.ar    1  UNL1        0.0957
      2 C          61.8820   90.5765   11.0639 C.ar    1  UNL1        0.1191
      3 N          61.2490   90.0308    9.8183 N.ar    1  UNL1       -0.2223
      4 C          61.3067   88.5599    9.5302 C.ar    1  UNL1        0.1784
      5 N          60.7774   87.7385    8.3921 N.ar    1  UNL1       -0.2236
      6 C          61.1409   86.3056    8.6463 C.ar    1  UNL1        0.1066
      7 C          61.8948   86.2414    9.9415 C.ar    1  UNL1        0.0910
      8 C          61.9972   87.6346   10.4877 C.ar    1  UNL1        0.0988
      9 N          62.6302   88.1803   11.7334 N.ar    1  UNL1       -0.3481
     10 H          63.0834   87.5730   12.3619 H       1  UNL1        0.1661
     11 C          63.6494   90.6118   17.1007 C.3     1  UNL1        0.1537
     12 N          63.7004   90.6384   15.6018 N.ar    1  UNL1       -0.2487
     13 N          62.8024   89.8734   14.6753 N.ar    1  UNL1       -0.1677
     14 C          63.2054   90.1969   13.2672 C.ar    1  UNL1        0.1193
     15 C          64.3524   91.1619   13.3234 C.ar    1  UNL1        0.0382
     16 C          65.1578   91.8274   12.2471 C.ar    1  UNL1        0.0054
     17 C          66.2691   92.7657   12.6137 C.ar    1  UNL1        0.0298
     18 C          66.5751   93.0386   14.0566 C.ar    1  UNL1        0.1416
     19 F          67.6865   93.9770   14.4231 F       1  UNL1       -0.2041
     20 C          65.7697   92.3731   15.1329 C.ar    1  UNL1        0.0484
     21 C          64.6584   91.4348   14.7662 C.ar    1  UNL1        0.0817
     22 C          62.4489   85.0016   10.5785 C.2     1  UNL1        0.2489
     23 O          63.3243   84.0776    9.7848 O.2     1  UNL1       -0.2700
     24 N          62.1277   84.6858   12.0093 N.am    1  UNL1       -0.2999
     25 H          61.5532   85.2922   12.5302 H       1  UNL1        0.1498
     26 C          62.6818   83.4460   12.6462 C.3     1  UNL1        0.1028
     27 C          63.5206   83.5501   13.8855 C.3     1  UNL1        0.1617
     28 O          64.0748   82.3103   14.5224 O.3     1  UNL1       -0.3506
     29 C          63.7901   80.9663   13.9202 C.3     1  UNL1        0.1576
     30 C          62.9514   80.8621   12.6810 C.3     1  UNL1        0.0826
     31 N          62.6668   79.5182   12.0788 N.3     1  UNL1       -0.3201
     32 C          62.3972   82.1019   12.0440 C.3     1  UNL1        0.0402
     33 H          62.0867   79.6339   11.2478 H       1  UNL1        0.1189
     34 H          62.1750   78.9382   12.7587 H       1  UNL1        0.1189
@<TRIPOS>BOND
     1    11    12    1
     2    12    13   ar
     3    13    14   ar
     4    14     1    1
     5     1     2   ar
     6     2     3   ar
     7     3     4   ar
     8     4     5   ar
     9     5     6   ar
    10     6     7   ar
    11     7    22    1
    12    22    23    2
    13    22    24   am
    14    24    26    1
    15    26    27    1
    16    27    28    1
    17    28    29    1
    18    29    30    1
    19    30    31    1
    20    30    32    1
    21     7     8   ar
    22     8     9   ar
    23    14    15   ar
    24    15    16   ar
    25    16    17   ar
    26    17    18   ar
    27    18    19    1
    28    18    20   ar
    29    20    21   ar
    30    21    12   ar
    31     9     1   ar
    32    21    15   ar
    33     8     4    1
    34    32    26    1
    35    24    25    1
    36    31    33    1
    37    31    34    1
    38     9    10    1
@<TRIPOS>MOLECULE
*****
 34 38 0 0 0
SMALL
GASTEIGER

@<TRIPOS>ATOM
      1 C          63.6029   89.0084   14.2325 C.ar    1  UNL1        0.0957
      2 C          63.0373   88.9721   15.6212 C.ar    1  UNL1        0.1191
      3 N          63.3877   90.0514   16.6022 N.ar    1  UNL1       -0.2223
      4 C          64.3036   91.1671   16.1945 C.ar    1  UNL1        0.1784
      5 N          64.8241   92.3611   16.9384 N.ar    1  UNL1       -0.2236
      6 C          65.7115   93.1354   16.0094 C.ar    1  UNL1        0.1066
      7 C          65.7394   92.4199   14.6913 C.ar    1  UNL1        0.0910
      8 C          64.8693   91.2035   14.8057 C.ar    1  UNL1        0.0988
      9 N          64.5190   90.1242   13.8247 N.ar    1  UNL1       -0.3481
     10 H          64.8902   90.1480   12.9132 H       1  UNL1        0.1661
     11 C          63.0903   84.2799   11.9394 C.3     1  UNL1        0.1537
     12 N          63.0170   85.7557   12.1975 N.ar    1  UNL1       -0.2487
     13 N          63.5377   86.4653   13.4121 N.ar    1  UNL1       -0.1677
     14 C          63.2526   87.9291   13.2515 C.ar    1  UNL1        0.1193
     15 C          62.5557   88.1243   11.9376 C.ar    1  UNL1        0.0382
     16 C          62.0349   89.3515   11.2502 C.ar    1  UNL1        0.0054
     17 C          61.3685   89.2355    9.9115 C.ar    1  UNL1        0.0298
     18 C          61.2229   87.8922    9.2600 C.ar    1  UNL1        0.1416
     19 F          60.5564   87.7763    7.9212 F       1  UNL1       -0.2041
     20 C          61.7437   86.6650    9.9474 C.ar    1  UNL1        0.0484
     21 C          62.4101   86.7810   11.2862 C.ar    1  UNL1        0.0817
     22 C          66.5033   92.8461   13.4727 C.2     1  UNL1        0.2489
     23 O          67.9976   92.7186   13.4417 O.2     1  UNL1       -0.2700
     24 N          65.7730   93.3998   12.2853 N.am    1  UNL1       -0.2999
     25 H          64.7923   93.4835   12.3057 H       1  UNL1        0.1498
     26 C          66.5369   93.8260   11.0668 C.3     1  UNL1        0.1028
     27 C          66.5664   95.2716   10.6677 C.3     1  UNL1        0.1617
     28 O          67.3304   95.6978    9.4491 O.3     1  UNL1       -0.3506
     29 C          68.0649   94.6783    8.6298 C.3     1  UNL1        0.1576
     30 C          68.0354   93.2327    9.0290 C.3     1  UNL1        0.0826
     31 N          68.7698   92.2133    8.2097 N.3     1  UNL1       -0.3201
     32 C          67.2714   92.8065   10.2475 C.3     1  UNL1        0.0402
     33 H          68.6426   91.2894    8.6228 H       1  UNL1        0.1189
     34 H          69.7633   92.4436    8.1912 H       1  UNL1        0.1189
@<TRIPOS>BOND
     1    11    12    1
     2    12    13   ar
     3    13    14   ar
     4    14     1    1
     5     1     2   ar
     6     2     3   ar
     7     3     4   ar
     8     4     5   ar
     9     5     6   ar
    10     6     7   ar
    11     7    22    1
    12    22    23    2
    13    22    24   am
    14    24    26    1
    15    26    27    1
    16    27    28    1
    17    28    29    1
    18    29    30    1
    19    30    31    1
    20    30    32    1
    21     7     8   ar
    22     8     9   ar
    23    14    15   ar
    24    15    16   ar
    25    16    17   ar
    26    17    18   ar
    27    18    19    1
    28    18    20   ar
    29    20    21   ar
    30    21    12   ar
    31     9     1   ar
    32    21    15   ar
    33     8     4    1
    34    32    26    1
    35    24    25    1
    36    31    33    1
    37    31    34    1
    38     9    10    1
@<TRIPOS>MOLECULE
*****
 34 38 0 0 0
SMALL
GASTEIGER

@<TRIPOS>ATOM
      1 C          63.6124   86.8960   14.4250 C.ar    1  UNL1        0.0957
      2 C          63.1658   86.7085   15.8446 C.ar    1  UNL1        0.1191
      3 N          63.1083   87.8842   16.7743 N.ar    1  UNL1       -0.2223
      4 C          63.4975   89.2475   16.2844 C.ar    1  UNL1        0.1784
      5 N          63.5416   90.5837   16.9646 N.ar    1  UNL1       -0.2236
      6 C          64.0155   91.5970   15.9654 C.ar    1  UNL1        0.1066
      7 C          64.2643   90.8871   14.6677 C.ar    1  UNL1        0.0910
      8 C          63.9442   89.4351   14.8648 C.ar    1  UNL1        0.0988
      9 N          64.0016   88.2593   13.9351 N.ar    1  UNL1       -0.3481
     10 H          64.2948   88.3824   13.0034 H       1  UNL1        0.1661
     11 C          64.4392   82.0466   12.5065 C.3     1  UNL1        0.1537
     12 N          64.0499   83.4913   12.6134 N.ar    1  UNL1       -0.2487
     13 N          64.1755   84.3500   13.8369 N.ar    1  UNL1       -0.1677
     14 C          63.6699   85.7203   13.4953 C.ar    1  UNL1        0.1193
     15 C          63.2319   85.7085   12.0607 C.ar    1  UNL1        0.0382
     16 C          62.6496   86.7742   11.1803 C.ar    1  UNL1        0.0054
     17 C          62.3021   86.4622    9.7549 C.ar    1  UNL1        0.0298
     18 C          62.5369   85.0846    9.2098 C.ar    1  UNL1        0.1416
     19 F          62.1894   84.7727    7.7843 F       1  UNL1       -0.2041
     20 C          63.1193   84.0190   10.0903 C.ar    1  UNL1        0.0484
     21 C          63.4668   84.3309   11.5157 C.ar    1  UNL1        0.0817
     22 C          64.7483   91.5185   13.3960 C.2     1  UNL1        0.2489
     23 O          64.0287   91.2550   12.1065 O.2     1  UNL1       -0.2700
     24 N          65.9520   92.4135   13.4137 N.am    1  UNL1       -0.2999
     25 H          66.4243   92.5864   14.2600 H       1  UNL1        0.1498
     26 C          66.4359   93.0448   12.1421 C.3     1  UNL1        0.1028
     27 C          66.1758   94.4987   11.8802 C.3     1  UNL1        0.1617
     28 O          66.6598   95.1300   10.6085 O.3     1  UNL1       -0.3506
     29 C          67.4039   94.3075    9.5987 C.3     1  UNL1        0.1576
     30 C          67.6640   92.8536    9.8605 C.3     1  UNL1        0.0826
     31 N          68.4081   92.0311    8.8507 N.3     1  UNL1       -0.3201
     32 C          67.1800   92.2223   11.1322 C.3     1  UNL1        0.0402
     33 H          68.4939   91.0728    9.1895 H       1  UNL1        0.1189
     34 H          69.3377   92.4261    8.7090 H       1  UNL1        0.1189
@<TRIPOS>BOND
     1    11    12    1
     2    12    13   ar
     3    13    14   ar
     4    14     1    1
     5     1     2   ar
     6     2     3   ar
     7     3     4   ar
     8     4     5   ar
     9     5     6   ar
    10     6     7   ar
    11     7    22    1
    12    22    23    2
    13    22    24   am
    14    24    26    1
    15    26    27    1
    16    27    28    1
    17    28    29    1
    18    29    30    1
    19    30    31    1
    20    30    32    1
    21     7     8   ar
    22     8     9   ar
    23    14    15   ar
    24    15    16   ar
    25    16    17   ar
    26    17    18   ar
    27    18    19    1
    28    18    20   ar
    29    20    21   ar
    30    21    12   ar
    31     9     1   ar
    32    21    15   ar
    33     8     4    1
    34    32    26    1
    35    24    25    1
    36    31    33    1
    37    31    34    1
    38     9    10    1
@<TRIPOS>MOLECULE
*****
 34 38 0 0 0
SMALL
GASTEIGER

@<TRIPOS>ATOM
      1 C          63.0380   84.8644   14.0599 C.ar    1  UNL1        0.0957
      2 C          62.5750   83.8554   15.0686 C.ar    1  UNL1        0.1191
      3 N          62.3662   84.2638   16.4967 N.ar    1  UNL1       -0.2223
      4 C          62.6204   85.6813   16.9163 C.ar    1  UNL1        0.1784
      5 N          62.5022   86.3720   18.2424 N.ar    1  UNL1       -0.2236
      6 C          62.8923   87.8080   18.0535 C.ar    1  UNL1        0.1066
      7 C          63.2515   88.0048   16.6105 C.ar    1  UNL1        0.0910
      8 C          63.0835   86.6904   15.9077 C.ar    1  UNL1        0.0988
      9 N          63.2923   86.2819   14.4795 N.ar    1  UNL1       -0.3481
     10 H          63.5962   86.9443   13.8175 H       1  UNL1        0.1661
     11 C          64.7416   82.3072    9.7659 C.3     1  UNL1        0.1537
     12 N          64.0299   83.2806   10.6581 N.ar    1  UNL1       -0.2487
     13 N          64.1167   83.3309   12.1547 N.ar    1  UNL1       -0.1677
     14 C          63.2469   84.4560   12.6318 C.ar    1  UNL1        0.1193
     15 C          62.6225   85.1010   11.4301 C.ar    1  UNL1        0.0382
     16 C          61.6759   86.2559   11.2890 C.ar    1  UNL1        0.0054
     17 C          61.2132   86.6843    9.9280 C.ar    1  UNL1        0.0298
     18 C          61.6971   85.9579    8.7081 C.ar    1  UNL1        0.1416
     19 F          61.2344   86.3865    7.3471 F       1  UNL1       -0.2041
     20 C          62.6438   84.8030    8.8492 C.ar    1  UNL1        0.0484
     21 C          63.1065   84.3745   10.2102 C.ar    1  UNL1        0.0817
     22 C          63.7000   89.2903   15.9809 C.2     1  UNL1        0.2489
     23 O          63.2332   90.6018   16.5395 O.2     1  UNL1       -0.2700
     24 N          64.6152   89.2643   14.7928 N.am    1  UNL1       -0.2999
     25 H          64.9216   88.4034   14.4262 H       1  UNL1        0.1498
     26 C          65.0637   90.5497   14.1633 C.3     1  UNL1        0.1028
     27 C          64.2400   91.1822   13.0810 C.3     1  UNL1        0.1617
     28 O          64.6885   92.4678   12.4514 O.3     1  UNL1       -0.3506
     29 C          65.9607   93.1208   12.9042 C.3     1  UNL1        0.1576
     30 C          66.7844   92.4883   13.9866 C.3     1  UNL1        0.0826
     31 N          68.0566   93.1413   14.4394 N.3     1  UNL1       -0.3201
     32 C          66.3360   91.2028   14.6161 C.3     1  UNL1        0.0402
     33 H          68.4839   92.5794   15.1756 H       1  UNL1        0.1189
     34 H          67.8511   94.0734   14.7990 H       1  UNL1        0.1189
@<TRIPOS>BOND
     1    11    12    1
     2    12    13   ar
     3    13    14   ar
     4    14     1    1
     5     1     2   ar
     6     2     3   ar
     7     3     4   ar
     8     4     5   ar
     9     5     6   ar
    10     6     7   ar
    11     7    22    1
    12    22    23    2
    13    22    24   am
    14    24    26    1
    15    26    27    1
    16    27    28    1
    17    28    29    1
    18    29    30    1
    19    30    31    1
    20    30    32    1
    21     7     8   ar
    22     8     9   ar
    23    14    15   ar
    24    15    16   ar
    25    16    17   ar
    26    17    18   ar
    27    18    19    1
    28    18    20   ar
    29    20    21   ar
    30    21    12   ar
    31     9     1   ar
    32    21    15   ar
    33     8     4    1
    34    32    26    1
    35    24    25    1
    36    31    33    1
    37    31    34    1
    38     9    10    1
@<TRIPOS>MOLECULE
*****
 34 38 0 0 0
SMALL
GASTEIGER

@<TRIPOS>ATOM
      1 C          63.7976   84.7366   14.5449 C.ar    1  UNL1        0.0957
      2 C          64.4644   83.4488   14.9280 C.ar    1  UNL1        0.1191
      3 N          64.7311   82.4032   13.8860 N.ar    1  UNL1       -0.2223
      4 C          64.3310   82.6456   12.4608 C.ar    1  UNL1        0.1784
      5 N          64.4638   81.8066   11.2245 N.ar    1  UNL1       -0.2236
      6 C          63.8791   82.5759   10.0772 C.ar    1  UNL1        0.1066
      7 C          63.3849   83.8903   10.6045 C.ar    1  UNL1        0.0910
      8 C          63.6642   83.9334   12.0776 C.ar    1  UNL1        0.0988
      9 N          63.3975   84.9789   13.1196 N.ar    1  UNL1       -0.3481
     10 H          62.9598   85.8241   12.8681 H       1  UNL1        0.1661
     11 C          62.4809   87.0716   19.0940 C.3     1  UNL1        0.1537
     12 N          62.9257   86.8554   17.6779 N.ar    1  UNL1       -0.2487
     13 N          63.0589   85.5300   16.9882 N.ar    1  UNL1       -0.1677
     14 C          63.5309   85.7821   15.5869 C.ar    1  UNL1        0.1193
     15 C          63.6893   87.2632   15.4105 C.ar    1  UNL1        0.0382
     16 C          64.1259   88.0936   14.2401 C.ar    1  UNL1        0.0054
     17 C          64.1884   89.5873   14.3620 C.ar    1  UNL1        0.0298
     18 C          63.8143   90.2506   15.6543 C.ar    1  UNL1        0.1416
     19 F          63.8768   91.7444   15.7761 F       1  UNL1       -0.2041
     20 C          63.3778   89.4203   16.8247 C.ar    1  UNL1        0.0484
     21 C          63.3153   87.9266   16.7028 C.ar    1  UNL1        0.0817
     22 C          62.7269   84.9719    9.7999 C.2     1  UNL1        0.2489
     23 O          63.3499   85.4366    8.5169 O.2     1  UNL1       -0.2700
     24 N          61.4459   85.5886   10.2781 N.am    1  UNL1       -0.2999
     25 H          61.0370   85.2836   11.1201 H       1  UNL1        0.1498
     26 C          60.7880   86.6701    9.4735 C.3     1  UNL1        0.1028
     27 C          60.1815   86.3490    8.1397 C.3     1  UNL1        0.1617
     28 O          59.5236   87.4305    7.3350 O.3     1  UNL1       -0.3506
     29 C          59.4721   88.8331    7.8642 C.3     1  UNL1        0.1576
     30 C          60.0786   89.1542    9.1980 C.3     1  UNL1        0.0826
     31 N          60.0271   90.5568    9.7272 N.3     1  UNL1       -0.3201
     32 C          60.7365   88.0727   10.0027 C.3     1  UNL1        0.0402
     33 H          60.4835   90.5932   10.6387 H       1  UNL1        0.1189
     34 H          59.0545   90.8489    9.8220 H       1  UNL1        0.1189
@<TRIPOS>BOND
     1    11    12    1
     2    12    13   ar
     3    13    14   ar
     4    14     1    1
     5     1     2   ar
     6     2     3   ar
     7     3     4   ar
     8     4     5   ar
     9     5     6   ar
    10     6     7   ar
    11     7    22    1
    12    22    23    2
    13    22    24   am
    14    24    26    1
    15    26    27    1
    16    27    28    1
    17    28    29    1
    18    29    30    1
    19    30    31    1
    20    30    32    1
    21     7     8   ar
    22     8     9   ar
    23    14    15   ar
    24    15    16   ar
    25    16    17   ar
    26    17    18   ar
    27    18    19    1
    28    18    20   ar
    29    20    21   ar
    30    21    12   ar
    31     9     1   ar
    32    21    15   ar
    33     8     4    1
    34    32    26    1
    35    24    25    1
    36    31    33    1
    37    31    34    1
    38     9    10    1
@<TRIPOS>MOLECULE
*****
 34 38 0 0 0
SMALL
GASTEIGER

@<TRIPOS>ATOM
      1 C          63.3870   84.9693   14.0408 C.ar    1  UNL1        0.0957
      2 C          64.2200   85.2257   15.2615 C.ar    1  UNL1        0.1191
      3 N          64.7238   86.6091   15.5487 N.ar    1  UNL1       -0.2223
      4 C          64.3945   87.7361   14.6152 C.ar    1  UNL1        0.1784
      5 N          64.7477   89.1937   14.6375 N.ar    1  UNL1       -0.2236
      6 C          64.1331   89.8382   13.4306 C.ar    1  UNL1        0.1066
      7 C          63.3999   88.7788   12.6623 C.ar    1  UNL1        0.0910
      8 C          63.5615   87.4797   13.3944 C.ar    1  UNL1        0.0988
      9 N          63.0577   86.0963   13.1071 N.ar    1  UNL1       -0.3481
     10 H          62.5110   85.9280   12.3059 H       1  UNL1        0.1661
     11 C          60.9175   80.3258   14.5105 C.3     1  UNL1        0.1537
     12 N          61.7481   81.4516   13.9694 N.ar    1  UNL1       -0.2487
     13 N          62.0048   82.7638   14.6493 N.ar    1  UNL1       -0.1677
     14 C          62.8832   83.5859   13.7535 C.ar    1  UNL1        0.1193
     15 C          63.1695   82.7818   12.5200 C.ar    1  UNL1        0.0382
     16 C          63.9784   83.0803   11.2926 C.ar    1  UNL1        0.0054
     17 C          64.0856   82.0597   10.1986 C.ar    1  UNL1        0.0298
     18 C          63.3841   80.7406   10.3321 C.ar    1  UNL1        0.1416
     19 F          63.4914   79.7200    9.2380 F       1  UNL1       -0.2041
     20 C          62.5753   80.4421   11.5595 C.ar    1  UNL1        0.0484
     21 C          62.4680   81.4627   12.6535 C.ar    1  UNL1        0.0817
     22 C          62.6388   88.9828   11.3858 C.2     1  UNL1        0.2489
     23 O          63.0864   90.0249   10.4041 O.2     1  UNL1       -0.2700
     24 N          61.4301   88.1449   11.0912 N.am    1  UNL1       -0.2999
     25 H          61.1363   87.4610   11.7356 H       1  UNL1        0.1498
     26 C          60.6691   88.3489    9.8149 C.3     1  UNL1        0.1028
     27 C          60.6200   89.7070    9.1799 C.3     1  UNL1        0.1617
     28 O          59.8589   89.9110    7.9034 O.3     1  UNL1       -0.3506
     29 C          59.1469   88.7570    7.2621 C.3     1  UNL1        0.1576
     30 C          59.1960   87.3990    7.8971 C.3     1  UNL1        0.0826
     31 N          58.4840   86.2450    7.2558 N.3     1  UNL1       -0.3201
     32 C          59.9570   87.1949    9.1735 C.3     1  UNL1        0.0402
     33 H          58.6225   85.4052    7.8180 H       1  UNL1        0.1189
     34 H          58.8582   86.0927    6.3192 H       1  UNL1        0.1189
@<TRIPOS>BOND
     1    11    12    1
     2    12    13   ar
     3    13    14   ar
     4    14     1    1
     5     1     2   ar
     6     2     3   ar
     7     3     4   ar
     8     4     5   ar
     9     5     6   ar
    10     6     7   ar
    11     7    22    1
    12    22    23    2
    13    22    24   am
    14    24    26    1
    15    26    27    1
    16    27    28    1
    17    28    29    1
    18    29    30    1
    19    30    31    1
    20    30    32    1
    21     7     8   ar
    22     8     9   ar
    23    14    15   ar
    24    15    16   ar
    25    16    17   ar
    26    17    18   ar
    27    18    19    1
    28    18    20   ar
    29    20    21   ar
    30    21    12   ar
    31     9     1   ar
    32    21    15   ar
    33     8     4    1
    34    32    26    1
    35    24    25    1
    36    31    33    1
    37    31    34    1
    38     9    10    1
@<TRIPOS>MOLECULE
*****
 34 38 0 0 0
SMALL
GASTEIGER

@<TRIPOS>ATOM
      1 C          62.2385   88.7462   10.9005 C.ar    1  UNL1        0.0957
      2 C          62.6103   90.1810   11.1303 C.ar    1  UNL1        0.1191
      3 N          63.4219   90.5622   12.3328 N.ar    1  UNL1       -0.2223
      4 C          63.8617   89.5086   13.3055 C.ar    1  UNL1        0.1784
      5 N          64.6637   89.5827   14.5709 N.ar    1  UNL1       -0.2236
      6 C          64.7877   88.1936   15.1232 C.ar    1  UNL1        0.1066
      7 C          64.0622   87.2610   14.1992 C.ar    1  UNL1        0.0910
      8 C          63.4900   88.0736   13.0758 C.ar    1  UNL1        0.0988
      9 N          62.6784   87.6924   11.8733 N.ar    1  UNL1       -0.3481
     10 H          62.4344   86.7506   11.7225 H       1  UNL1        0.1661
     11 C          58.6296   88.8252    7.0469 C.3     1  UNL1        0.1537
     12 N          59.7682   88.4013    7.9267 N.ar    1  UNL1       -0.2487
     13 N          60.2866   89.1489    9.1193 N.ar    1  UNL1       -0.1677
     14 C          61.4270   88.3650    9.6980 C.ar    1  UNL1        0.1193
     15 C          61.6133   87.1328    8.8631 C.ar    1  UNL1        0.0382
     16 C          62.5841   85.9933    8.9582 C.ar    1  UNL1        0.0054
     17 C          62.5296   84.8762    7.9586 C.ar    1  UNL1        0.0298
     18 C          61.5044   84.8987    6.8639 C.ar    1  UNL1        0.1416
     19 F          61.4500   83.7816    5.8643 F       1  UNL1       -0.2041
     20 C          60.5336   86.0382    6.7688 C.ar    1  UNL1        0.0484
     21 C          60.5881   87.1552    7.7683 C.ar    1  UNL1        0.0817
     22 C          63.9320   85.7762   14.3688 C.2     1  UNL1        0.2489
     23 O          64.3210   85.1326   15.6666 O.2     1  UNL1       -0.2700
     24 N          63.4126   84.9352   13.2405 N.am    1  UNL1       -0.2999
     25 H          63.1573   85.3576   12.3887 H       1  UNL1        0.1498
     26 C          63.2824   83.4505   13.4102 C.3     1  UNL1        0.1028
     27 C          64.4488   82.5562   13.1108 C.3     1  UNL1        0.1617
     28 O          64.3185   81.0715   13.2804 O.3     1  UNL1       -0.3506
     29 C          63.0218   80.4812   13.7495 C.3     1  UNL1        0.1576
     30 C          61.8554   81.3755   14.0489 C.3     1  UNL1        0.0826
     31 N          60.5587   80.7852   14.5179 N.3     1  UNL1       -0.3201
     32 C          61.9856   82.8601   13.8792 C.3     1  UNL1        0.0402
     33 H          59.8813   81.5319   14.6723 H       1  UNL1        0.1189
     34 H          60.7114   80.2790   15.3902 H       1  UNL1        0.1189
@<TRIPOS>BOND
     1    11    12    1
     2    12    13   ar
     3    13    14   ar
     4    14     1    1
     5     1     2   ar
     6     2     3   ar
     7     3     4   ar
     8     4     5   ar
     9     5     6   ar
    10     6     7   ar
    11     7    22    1
    12    22    23    2
    13    22    24   am
    14    24    26    1
    15    26    27    1
    16    27    28    1
    17    28    29    1
    18    29    30    1
    19    30    31    1
    20    30    32    1
    21     7     8   ar
    22     8     9   ar
    23    14    15   ar
    24    15    16   ar
    25    16    17   ar
    26    17    18   ar
    27    18    19    1
    28    18    20   ar
    29    20    21   ar
    30    21    12   ar
    31     9     1   ar
    32    21    15   ar
    33     8     4    1
    34    32    26    1
    35    24    25    1
    36    31    33    1
    37    31    34    1
    38     9    10    1
@<TRIPOS>MOLECULE
*****
 34 38 0 0 0
SMALL
GASTEIGER

@<TRIPOS>ATOM
      1 C          62.5564   86.6354   12.0559 C.ar    1  UNL1        0.0957
      2 C          61.5443   86.3970   10.9749 C.ar    1  UNL1        0.1191
      3 N          61.1434   87.5179   10.0623 N.ar    1  UNL1       -0.2223
      4 C          61.7547   88.8773   10.2308 C.ar    1  UNL1        0.1784
      5 N          61.5574   90.1656    9.4882 N.ar    1  UNL1       -0.2236
      6 C          62.4476   91.2002   10.1102 C.ar    1  UNL1        0.1066
      7 C          63.1951   90.5514   11.2373 C.ar    1  UNL1        0.0910
      8 C          62.7668   89.1158   11.3118 C.ar    1  UNL1        0.0988
      9 N          63.1677   87.9949   12.2244 N.ar    1  UNL1       -0.3481
     10 H          63.8320   88.1514   12.9339 H       1  UNL1        0.1661
     11 C          64.2930   83.9647   16.2669 C.3     1  UNL1        0.1537
     12 N          63.7556   84.2869   14.9041 N.ar    1  UNL1       -0.2487
     13 N          63.4863   85.6604   14.3646 N.ar    1  UNL1       -0.1677
     14 C          62.9574   85.5145   12.9685 C.ar    1  UNL1        0.1193
     15 C          62.8997   84.0509   12.6452 C.ar    1  UNL1        0.0382
     16 C          62.4617   83.3110   11.4162 C.ar    1  UNL1        0.0054
     17 C          62.5171   81.8124   11.3834 C.ar    1  UNL1        0.0298
     18 C          63.0104   81.0537   12.5796 C.ar    1  UNL1        0.1416
     19 F          63.0657   79.5550   12.5467 F       1  UNL1       -0.2041
     20 C          63.4484   81.7936   13.8087 C.ar    1  UNL1        0.0484
     21 C          63.3930   83.2922   13.8415 C.ar    1  UNL1        0.0817
     22 C          64.1952   91.2208   12.1327 C.2     1  UNL1        0.2489
     23 O          65.0151   92.3662   11.6171 O.2     1  UNL1       -0.2700
     24 N          64.3755   90.7447   13.5437 N.am    1  UNL1       -0.2999
     25 H          63.8375   89.9930   13.8821 H       1  UNL1        0.1498
     26 C          65.3757   91.4141   14.4390 C.3     1  UNL1        0.1028
     27 C          64.9467   91.9540   15.7711 C.3     1  UNL1        0.1617
     28 O          65.9469   92.6233   16.6664 O.3     1  UNL1       -0.3506
     29 C          67.3760   92.7529   16.2296 C.3     1  UNL1        0.1576
     30 C          67.8050   92.2130   14.8975 C.3     1  UNL1        0.0826
     31 N          69.2341   92.3425   14.4607 N.3     1  UNL1       -0.3201
     32 C          66.8049   91.5437   14.0022 C.3     1  UNL1        0.0402
     33 H          69.3466   91.9243   13.5372 H       1  UNL1        0.1189
     34 H          69.8383   91.8621   15.1274 H       1  UNL1        0.1189
@<TRIPOS>BOND
     1    11    12    1
     2    12    13   ar
     3    13    14   ar
     4    14     1    1
     5     1     2   ar
     6     2     3   ar
     7     3     4   ar
     8     4     5   ar
     9     5     6   ar
    10     6     7   ar
    11     7    22    1
    12    22    23    2
    13    22    24   am
    14    24    26    1
    15    26    27    1
    16    27    28    1
    17    28    29    1
    18    29    30    1
    19    30    31    1
    20    30    32    1
    21     7     8   ar
    22     8     9   ar
    23    14    15   ar
    24    15    16   ar
    25    16    17   ar
    26    17    18   ar
    27    18    19    1
    28    18    20   ar
    29    20    21   ar
    30    21    12   ar
    31     9     1   ar
    32    21    15   ar
    33     8     4    1
    34    32    26    1
    35    24    25    1
    36    31    33    1
    37    31    34    1
    38     9    10    1
