@<TRIPOS>MOLECULE
*****
 58 61 0 0 0
SMALL
GASTEIGER

@<TRIPOS>ATOM
      1 C          63.0235   89.5730   13.3767 C.3     1  UNL1        0.1445
      2 C          62.9067   89.3401   11.8995 C.3     1  UNL1        0.0575
      3 C          62.9582   90.7299   11.3374 C.3     1  UNL1        0.0051
      4 C          62.7669   88.4887   10.6725 C.3     1  UNL1        0.1306
      5 C          62.6319   87.1875    9.9386 C.3     1  UNL1        0.1263
      6 C          62.5434   87.2524    8.5931 C.3     1  UNL1        0.0142
      7 C          62.5283   85.6941    9.8433 C.2     1  UNL1        0.3188
      8 O          62.4115   85.4612    8.3660 O.2     1  UNL1       -0.2500
      9 O          62.4768   84.3043   10.4053 O.3     1  UNL1       -0.4497
     10 C          62.4875   83.2935   11.5136 C.3     1  UNL1        0.1953
     11 C          62.5583   82.8617   12.9483 C.3     1  UNL1        0.1497
     12 C          62.5269   81.5704   13.7109 C.3     1  UNL1        0.0356
     13 O          62.4185   81.6853   12.0283 O.3     1  UNL1       -0.3808
     14 C          62.6751   83.0946   14.4255 C.3     1  UNL1        0.1451
     15 O          62.6236   81.7048   14.9876 O.3     1  UNL1       -0.3815
     16 C          62.8149   83.9460   15.6526 C.3     1  UNL1        0.0869
     17 C          62.8256   82.9351   16.7607 C.3     1  UNL1        0.0104
     18 C          62.9499   85.2472   16.3864 C.2     1  UNL1        0.1523
     19 O          63.0207   84.8154   17.8212 O.2     1  UNL1       -0.2960
     20 C          63.0535   86.7406   16.4818 C.3     1  UNL1        0.0601
     21 C          63.1703   86.9735   17.9590 C.3     1  UNL1        0.0078
     22 C          63.1050   88.1304   15.9197 C.3     1  UNL1        0.0366
     23 C          63.0943   89.1412   14.8114 C.3     1  UNL1        0.1137
     24 C          63.1823   90.6331   14.6832 C.3     1  UNL1        0.0318
     25 O          63.2294   89.7995   16.1525 O.3     1  UNL1       -0.3844
     26 H          62.3755   81.9960   11.1104 H       1  UNL1        0.2105
     27 H          63.1136   81.1025   14.4062 H       1  UNL1        0.2105
     28 H          63.2332   89.1218   16.8464 H       1  UNL1        0.2103
     29 C          62.3524   81.9923   10.7797 C.3     1  UNL1        0.0462
     30 C          63.5786   81.2355   10.3628 C.3     1  UNL1        0.0039
     31 O          63.1271   91.0663   13.4721 O.3     1  UNL1       -0.3278
     32 N          68.6851   92.0421   11.6715 N.2     1  UNL1       -0.2243
     33 C          67.6402   92.1226   12.7448 C.2     1  UNL1        0.2833
     34 O          66.2168   91.6643   12.6258 O.2     1  UNL1       -0.4466
     35 C          65.5323   91.9339   13.9329 C.3     1  UNL1        0.2426
     36 C          64.1273   91.6911   14.3989 C.3     1  UNL1        0.2785
     37 O          63.7226   92.0732   15.7918 O.3     1  UNL1       -0.3302
     38 C          64.7228   92.6980   16.7187 C.3     1  UNL1        0.1198
     39 C          64.3181   93.0800   18.1117 C.3     1  UNL1        0.0322
     40 C          66.1277   92.9407   16.2527 C.3     1  UNL1        0.0534
     41 C          66.5325   92.5587   14.8598 C.3     1  UNL1        0.1245
     42 N          67.8353   92.6753   14.1255 N.pl3   1  UNL1       -0.2603
     43 C          69.1094   93.2447   14.6753 C.3     1  UNL1        0.1166
     44 C          68.3563   92.3312    9.1106 C.3     1  UNL1        0.0285
     45 C          68.3412   91.4608   10.3321 C.3     1  UNL1        0.1301
     46 O          62.7562   89.4996    9.5643 O.3     1  UNL1       -0.3323
     47 C          61.6297   89.5149    8.5740 C.3     1  UNL1        0.2375
     48 C          60.4383   88.6270    8.7796 C.3     1  UNL1        0.0910
     49 C          59.3117   88.6424    7.7892 C.3     1  UNL1        0.1246
     50 C          58.0051   88.3032    7.1353 C.3     1  UNL1        0.0324
     51 C          59.3766   89.5457    6.5934 C.3     1  UNL1        0.1623
     52 O          58.2501   89.5610    5.6031 O.3     1  UNL1       -0.3796
     53 C          60.5680   90.4335    6.3880 C.3     1  UNL1        0.1468
     54 C          60.6329   91.3368    5.1921 C.3     1  UNL1        0.0348
     55 O          61.6945   90.4181    7.3783 O.3     1  UNL1       -0.3304
     56 H          57.5651   88.9339    5.8829 H       1  UNL1        0.2105
     57 O          58.7930   87.6213    8.7579 O.3     1  UNL1       -0.3532
     58 C          59.2902   87.6097   10.1731 C.3     1  UNL1        0.1740
@<TRIPOS>BOND
     1    44    45    1
     2    45    32    1
     3    32    33    2
     4    33    34    1
     5    35    34    1
     6    35    36    1
     7    36    31    1
     8     1    31    1
     9     1     2    1
    10     2     3    1
    11     2     4    1
    12     4    46    1
    13    47    46    1
    14    47    48    1
    15    48    49    1
    16    49    50    1
    17    49    57    1
    18    57    58    1
    19    49    51    1
    20    51    52    1
    21    51    53    1
    22    53    54    1
    23    53    55    1
    24     4     5    1
    25     5     6    1
    26     5     7    1
    27     7     8    2
    28     7     9    1
    29     9    10    1
    30    10    29    1
    31    29    30    1
    32    10    11    1
    33    11    12    1
    34    11    13    1
    35    11    14    1
    36    14    15    1
    37    14    16    1
    38    16    17    1
    39    16    18    1
    40    18    19    2
    41    18    20    1
    42    20    21    1
    43    20    22    1
    44    22    23    1
    45    23    24    1
    46    23    25    1
    47    36    37    1
    48    37    38    1
    49    38    39    1
    50    38    40    1
    51    41    40    1
    52    41    42    1
    53    42    43    1
    54    42    33    1
    55    41    35    1
    56    23     1    1
    57    55    47    1
    58    52    56    1
    59    13    26    1
    60    15    27    1
    61    25    28    1
@<TRIPOS>MOLECULE
*****
 58 61 0 0 0
SMALL
GASTEIGER

@<TRIPOS>ATOM
      1 C          62.9674   89.9253   12.3543 C.3     1  UNL1        0.1445
      2 C          62.7956   89.3343   10.9864 C.3     1  UNL1        0.0575
      3 C          62.7898   90.5433   10.0986 C.3     1  UNL1        0.0051
      4 C          62.6264   88.2051   10.0136 C.3     1  UNL1        0.1306
      5 C          62.4933   86.7615    9.6285 C.3     1  UNL1        0.1263
      6 C          62.3480   86.4918    8.3137 C.3     1  UNL1        0.0142
      7 C          62.4227   85.2893    9.9074 C.2     1  UNL1        0.3188
      8 O          62.2509   84.6982    8.5395 O.2     1  UNL1       -0.2500
      9 O          62.4285   84.0802   10.7952 O.3     1  UNL1       -0.4497
     10 C          62.5096   83.3736   12.1159 C.3     1  UNL1        0.1953
     11 C          62.6500   83.3095   13.6079 C.3     1  UNL1        0.1497
     12 C          62.6818   82.2455   14.6647 C.3     1  UNL1        0.0356
     13 O          62.5014   81.9410   13.0122 O.3     1  UNL1       -0.3808
     14 C          62.8218   83.9006   14.9758 C.3     1  UNL1        0.1451
     15 O          62.8276   82.6915   15.8636 O.3     1  UNL1       -0.3815
     16 C          62.9910   85.0298   15.9486 C.3     1  UNL1        0.0869
     17 C          63.0721   84.3232   17.2693 C.3     1  UNL1        0.0104
     18 C          63.1241   86.4733   16.3337 C.2     1  UNL1        0.1523
     19 O          63.2644   86.4093   17.8257 O.2     1  UNL1       -0.2960
     20 C          63.1947   87.9456   16.0548 C.3     1  UNL1        0.0601
     21 C          63.3665   88.5366   17.4227 C.3     1  UNL1        0.0078
     22 C          63.1889   89.1546   15.1670 C.3     1  UNL1        0.0366
     23 C          63.1077   89.8612   13.8463 C.3     1  UNL1        0.1137
     24 C          63.1537   91.2766   13.3519 C.3     1  UNL1        0.0318
     25 O          63.2817   90.8312   14.9771 O.3     1  UNL1       -0.3844
     26 H          62.4130   82.0154   12.0491 H       1  UNL1        0.2105
     27 H          63.3080   81.9714   15.4259 H       1  UNL1        0.2105
     28 H          63.3307   90.3454   15.8152 H       1  UNL1        0.2103
     29 C          62.3765   81.9300   11.7308 C.3     1  UNL1        0.0462
     30 C          63.3687   81.3095   10.7924 C.3     1  UNL1        0.0039
     31 O          63.0380   91.3974   12.0753 O.3     1  UNL1       -0.3278
     32 N          66.2327   92.7869   16.8658 N.2     1  UNL1       -0.2243
     33 C          66.0773   92.7741   15.3739 C.2     1  UNL1        0.2833
     34 O          64.9077   92.2221   14.6140 O.2     1  UNL1       -0.4466
     35 C          65.1718   92.4178   13.1505 C.3     1  UNL1        0.2426
     36 C          64.3708   92.0702   11.9307 C.3     1  UNL1        0.2785
     37 O          64.9027   92.3955   10.5665 O.3     1  UNL1       -0.3302
     38 C          66.2355   93.0684   10.4219 C.3     1  UNL1        0.1198
     39 C          66.7673   93.3937    9.0575 C.3     1  UNL1        0.0322
     40 C          67.0364   93.4159   11.6415 C.3     1  UNL1        0.0534
     41 C          66.5046   93.0907   13.0059 C.3     1  UNL1        0.1245
     42 N          67.0642   93.3108   14.3800 N.pl3   1  UNL1       -0.2603
     43 C          68.3798   93.9547   14.7036 C.3     1  UNL1        0.1166
     44 C          63.7199   92.3024   17.3141 C.3     1  UNL1        0.0285
     45 C          65.1561   92.2106   17.7370 C.3     1  UNL1        0.1301
     46 O          62.5453   88.9116    8.6929 O.3     1  UNL1       -0.3323
     47 C          61.2318   89.0119    7.9754 C.3     1  UNL1        0.2375
     48 C          61.0022   90.1118    6.9817 C.3     1  UNL1        0.0910
     49 C          59.6886   90.2121    6.2642 C.3     1  UNL1        0.1246
     50 C          58.6231   90.7209    5.3392 C.3     1  UNL1        0.0324
     51 C          58.6050   89.2125    6.5404 C.3     1  UNL1        0.1623
     52 O          57.2915   89.3128    5.8229 O.3     1  UNL1       -0.3796
     53 C          58.8347   88.1126    7.5341 C.3     1  UNL1        0.1468
     54 C          57.7509   87.1130    7.8103 C.3     1  UNL1        0.0348
     55 O          60.1481   88.0123    8.2516 O.3     1  UNL1       -0.3304
     56 H          57.3090   90.0734    5.2213 H       1  UNL1        0.2105
     57 O          60.4024   91.3884    5.6668 O.3     1  UNL1       -0.3532
     58 C          59.7740   92.1538    4.5400 C.3     1  UNL1        0.1740
@<TRIPOS>BOND
     1    44    45    1
     2    45    32    1
     3    32    33    2
     4    33    34    1
     5    35    34    1
     6    35    36    1
     7    36    31    1
     8     1    31    1
     9     1     2    1
    10     2     3    1
    11     2     4    1
    12     4    46    1
    13    47    46    1
    14    47    48    1
    15    48    49    1
    16    49    50    1
    17    49    57    1
    18    57    58    1
    19    49    51    1
    20    51    52    1
    21    51    53    1
    22    53    54    1
    23    53    55    1
    24     4     5    1
    25     5     6    1
    26     5     7    1
    27     7     8    2
    28     7     9    1
    29     9    10    1
    30    10    29    1
    31    29    30    1
    32    10    11    1
    33    11    12    1
    34    11    13    1
    35    11    14    1
    36    14    15    1
    37    14    16    1
    38    16    17    1
    39    16    18    1
    40    18    19    2
    41    18    20    1
    42    20    21    1
    43    20    22    1
    44    22    23    1
    45    23    24    1
    46    23    25    1
    47    36    37    1
    48    37    38    1
    49    38    39    1
    50    38    40    1
    51    41    40    1
    52    41    42    1
    53    42    43    1
    54    42    33    1
    55    41    35    1
    56    23     1    1
    57    55    47    1
    58    52    56    1
    59    13    26    1
    60    15    27    1
    61    25    28    1
@<TRIPOS>MOLECULE
*****
 58 61 0 0 0
SMALL
GASTEIGER

@<TRIPOS>ATOM
      1 C          63.0866   88.9628   12.9218 C.3     1  UNL1        0.1445
      2 C          62.8737   88.7848   11.4477 C.3     1  UNL1        0.0575
      3 C          62.6541   90.1897   10.9701 C.3     1  UNL1        0.0051
      4 C          62.7585   87.9815   10.1861 C.3     1  UNL1        0.1306
      5 C          62.7638   86.7122    9.3870 C.3     1  UNL1        0.1263
      6 C          62.5439   86.8260    8.0599 C.3     1  UNL1        0.0142
      7 C          62.8886   85.2280    9.2085 C.2     1  UNL1        0.3188
      8 O          62.6756   85.0501    7.7344 O.2     1  UNL1       -0.2500
      9 O          63.1081   83.8231    9.6861 O.3     1  UNL1       -0.4497
     10 C          63.3789   82.7757   10.7252 C.3     1  UNL1        0.1953
     11 C          63.6473   82.2932   12.1198 C.3     1  UNL1        0.1497
     12 C          63.8895   80.9791   12.8012 C.3     1  UNL1        0.0356
     13 O          63.6114   81.1550   11.1436 O.3     1  UNL1       -0.3808
     14 C          63.8602   82.4712   13.5939 C.3     1  UNL1        0.1451
     15 O          64.0798   81.0663   14.0715 O.3     1  UNL1       -0.3815
     16 C          63.9754   83.2745   14.8555 C.3     1  UNL1        0.0869
     17 C          64.2462   82.2271   15.8945 C.3     1  UNL1        0.0104
     18 C          63.9701   84.5438   15.6546 C.2     1  UNL1        0.1523
     19 O          64.2386   84.0613   17.0493 O.2     1  UNL1       -0.2960
     20 C          63.8453   86.0280   15.8331 C.3     1  UNL1        0.0601
     21 C          64.0583   86.2059   17.3072 C.3     1  UNL1        0.0078
     22 C          63.6258   87.4329   15.3556 C.3     1  UNL1        0.0366
     23 C          63.3550   88.4803   14.3164 C.3     1  UNL1        0.1137
     24 C          63.1948   89.9711   14.2737 C.3     1  UNL1        0.0318
     25 O          63.5064   89.0870   15.6799 O.3     1  UNL1       -0.3844
     26 H          63.4364   81.4980   10.2533 H       1  UNL1        0.2105
     27 H          64.6035   80.5800   13.4157 H       1  UNL1        0.2105
     28 H          63.6802   88.3866   16.3280 H       1  UNL1        0.2103
     29 C          63.3842   81.5063    9.9260 C.3     1  UNL1        0.0462
     30 C          62.5067   80.3600   10.3331 C.3     1  UNL1        0.0039
     31 O          62.9618   90.4468   13.1003 O.3     1  UNL1       -0.3278
     32 N          68.3591   92.1393   11.3424 N.2     1  UNL1       -0.2243
     33 C          67.3115   92.0660   12.4135 C.2     1  UNL1        0.2833
     34 O          65.9553   91.4392   12.2789 O.2     1  UNL1       -0.4466
     35 C          65.2418   91.5924   13.5894 C.3     1  UNL1        0.2426
     36 C          63.8769   91.1682   14.0447 C.3     1  UNL1        0.2785
     37 O          63.4273   91.4655   15.4445 O.3     1  UNL1       -0.3302
     38 C          64.3425   92.1869   16.3890 C.3     1  UNL1        0.1198
     39 C          63.8928   92.4841   17.7889 C.3     1  UNL1        0.0322
     40 C          65.7073   92.6110   15.9337 C.3     1  UNL1        0.0534
     41 C          66.1570   92.3139   14.5339 C.3     1  UNL1        0.1245
     42 N          67.4361   92.6065   13.8071 N.pl3   1  UNL1       -0.2603
     43 C          68.6302   93.3153   14.3743 C.3     1  UNL1        0.1166
     44 C          68.5461   92.2711    8.7544 C.3     1  UNL1        0.0285
     45 C          68.0903   91.5512    9.9889 C.3     1  UNL1        0.1301
     46 O          62.4877   89.0289    9.1471 O.3     1  UNL1       -0.3323
     47 C          61.2023   89.0041    8.3744 C.3     1  UNL1        0.2375
     48 C          60.9294   90.0544    7.3387 C.3     1  UNL1        0.0910
     49 C          59.6439   90.0295    6.5659 C.3     1  UNL1        0.1246
     50 C          58.5822   90.4259    5.5834 C.3     1  UNL1        0.0324
     51 C          58.6315   88.9545    6.8289 C.3     1  UNL1        0.1623
     52 O          57.3461   88.9296    6.0561 O.3     1  UNL1       -0.3796
     53 C          58.9044   87.9043    7.8645 C.3     1  UNL1        0.1468
     54 C          57.8919   86.8292    8.1274 C.3     1  UNL1        0.0348
     55 O          60.1898   87.9291    8.6372 O.3     1  UNL1       -0.3304
     56 H          57.3294   89.6724    5.4325 H       1  UNL1        0.2105
     57 O          60.2877   91.2422    5.9619 O.3     1  UNL1       -0.3532
     58 C          59.6369   91.9383    4.8034 C.3     1  UNL1        0.1740
@<TRIPOS>BOND
     1    44    45    1
     2    45    32    1
     3    32    33    2
     4    33    34    1
     5    35    34    1
     6    35    36    1
     7    36    31    1
     8     1    31    1
     9     1     2    1
    10     2     3    1
    11     2     4    1
    12     4    46    1
    13    47    46    1
    14    47    48    1
    15    48    49    1
    16    49    50    1
    17    49    57    1
    18    57    58    1
    19    49    51    1
    20    51    52    1
    21    51    53    1
    22    53    54    1
    23    53    55    1
    24     4     5    1
    25     5     6    1
    26     5     7    1
    27     7     8    2
    28     7     9    1
    29     9    10    1
    30    10    29    1
    31    29    30    1
    32    10    11    1
    33    11    12    1
    34    11    13    1
    35    11    14    1
    36    14    15    1
    37    14    16    1
    38    16    17    1
    39    16    18    1
    40    18    19    2
    41    18    20    1
    42    20    21    1
    43    20    22    1
    44    22    23    1
    45    23    24    1
    46    23    25    1
    47    36    37    1
    48    37    38    1
    49    38    39    1
    50    38    40    1
    51    41    40    1
    52    41    42    1
    53    42    43    1
    54    42    33    1
    55    41    35    1
    56    23     1    1
    57    55    47    1
    58    52    56    1
    59    13    26    1
    60    15    27    1
    61    25    28    1
@<TRIPOS>MOLECULE
*****
 58 61 0 0 0
SMALL
GASTEIGER

@<TRIPOS>ATOM
      1 C          63.0152   90.0018   12.2852 C.3     1  UNL1        0.1445
      2 C          62.8835   89.4069   10.9145 C.3     1  UNL1        0.0575
      3 C          62.9231   90.6121   10.0223 C.3     1  UNL1        0.0051
      4 C          62.7341   88.2756    9.9408 C.3     1  UNL1        0.1306
      5 C          62.5967   86.8321    9.5571 C.3     1  UNL1        0.1263
      6 C          62.4935   86.5585    8.2391 C.3     1  UNL1        0.0142
      7 C          62.4984   85.3621    9.8392 C.2     1  UNL1        0.3188
      8 O          62.3667   84.7673    8.4685 O.2     1  UNL1       -0.2500
      9 O          62.4587   84.1569   10.7313 O.3     1  UNL1       -0.4497
     10 C          62.4856   83.4552   12.0568 C.3     1  UNL1        0.1953
     11 C          62.5736   83.3958   13.5530 C.3     1  UNL1        0.1497
     12 C          62.5558   82.3361   14.6144 C.3     1  UNL1        0.0356
     13 O          62.4289   82.0266   12.9579 O.3     1  UNL1       -0.3808
     14 C          62.7053   83.9907   14.9237 C.3     1  UNL1        0.1451
     15 O          62.6656   82.7855   15.8158 O.3     1  UNL1       -0.3815
     16 C          62.8547   85.1219   15.8974 C.3     1  UNL1        0.0869
     17 C          62.8815   84.4202   17.2228 C.3     1  UNL1        0.0104
     18 C          62.9921   86.5654   16.2811 C.2     1  UNL1        0.1523
     19 O          63.0801   86.5062   17.7774 O.2     1  UNL1       -0.2960
     20 C          63.0904   88.0355   15.9990 C.3     1  UNL1        0.0601
     21 C          63.2221   88.6303   17.3697 C.3     1  UNL1        0.0078
     22 C          63.1300   89.2407   15.1069 C.3     1  UNL1        0.0366
     23 C          63.1032   89.9424   13.7813 C.3     1  UNL1        0.1137
     24 C          63.1836   91.3550   13.2833 C.3     1  UNL1        0.0318
     25 O          63.2499   90.9152   14.9137 O.3     1  UNL1       -0.3844
     26 H          62.3747   82.0979   11.9920 H       1  UNL1        0.2105
     27 H          63.1519   82.0577   15.3979 H       1  UNL1        0.2105
     28 H          63.2640   90.4324   15.7549 H       1  UNL1        0.2103
     29 C          62.3481   82.0116   11.6730 C.3     1  UNL1        0.0462
     30 C          63.3942   81.3600   10.8180 C.3     1  UNL1        0.0039
     31 O          63.1135   91.4716   12.0031 O.3     1  UNL1       -0.3278
     32 N          66.2930   92.7394   16.8372 N.2     1  UNL1       -0.2243
     33 C          66.1495   92.7497   15.3440 C.2     1  UNL1        0.2833
     34 O          64.9766   92.2288   14.5674 O.2     1  UNL1       -0.4466
     35 C          65.2558   92.4399   13.1089 C.3     1  UNL1        0.2426
     36 C          64.4589   92.1231   11.8782 C.3     1  UNL1        0.2785
     37 O          65.0073   92.4577   10.5228 O.3     1  UNL1       -0.3302
     38 C          66.3526   93.1092   10.3980 C.3     1  UNL1        0.1198
     39 C          66.9010   93.4438    9.0425 C.3     1  UNL1        0.0322
     40 C          67.1496   93.4259   11.6286 C.3     1  UNL1        0.0534
     41 C          66.6013   93.0913   12.9840 C.3     1  UNL1        0.1245
     42 N          67.1535   93.2828   14.3654 N.pl3   1  UNL1       -0.2603
     43 C          68.4774   93.8992   14.7082 C.3     1  UNL1        0.1166
     44 C          63.7636   92.4120   17.3321 C.3     1  UNL1        0.0285
     45 C          65.1996   92.1701   17.6918 C.3     1  UNL1        0.1301
     46 O          62.7073   88.9774    8.6154 O.3     1  UNL1       -0.3323
     47 C          61.4021   89.1977    7.9097 C.3     1  UNL1        0.2375
     48 C          60.2418   88.2853    8.1767 C.3     1  UNL1        0.0910
     49 C          58.9366   88.5057    7.4709 C.3     1  UNL1        0.1246
     50 C          57.5097   88.3089    7.0526 C.3     1  UNL1        0.0324
     51 C          58.7918   89.6384    6.4983 C.3     1  UNL1        0.1623
     52 O          57.4867   89.8587    5.7926 O.3     1  UNL1       -0.3796
     53 C          59.9521   90.5507    6.2314 C.3     1  UNL1        0.1468
     54 C          59.8073   91.6834    5.2587 C.3     1  UNL1        0.0348
     55 O          61.2573   90.3304    6.9371 O.3     1  UNL1       -0.3304
     56 H          56.8479   89.1864    6.0768 H       1  UNL1        0.2105
     57 O          58.5859   87.3047    8.2983 O.3     1  UNL1       -0.3532
     58 C          59.2269   85.9802    8.0071 C.3     1  UNL1        0.1740
@<TRIPOS>BOND
     1    44    45    1
     2    45    32    1
     3    32    33    2
     4    33    34    1
     5    35    34    1
     6    35    36    1
     7    36    31    1
     8     1    31    1
     9     1     2    1
    10     2     3    1
    11     2     4    1
    12     4    46    1
    13    47    46    1
    14    47    48    1
    15    48    49    1
    16    49    50    1
    17    49    57    1
    18    57    58    1
    19    49    51    1
    20    51    52    1
    21    51    53    1
    22    53    54    1
    23    53    55    1
    24     4     5    1
    25     5     6    1
    26     5     7    1
    27     7     8    2
    28     7     9    1
    29     9    10    1
    30    10    29    1
    31    29    30    1
    32    10    11    1
    33    11    12    1
    34    11    13    1
    35    11    14    1
    36    14    15    1
    37    14    16    1
    38    16    17    1
    39    16    18    1
    40    18    19    2
    41    18    20    1
    42    20    21    1
    43    20    22    1
    44    22    23    1
    45    23    24    1
    46    23    25    1
    47    36    37    1
    48    37    38    1
    49    38    39    1
    50    38    40    1
    51    41    40    1
    52    41    42    1
    53    42    43    1
    54    42    33    1
    55    41    35    1
    56    23     1    1
    57    55    47    1
    58    52    56    1
    59    13    26    1
    60    15    27    1
    61    25    28    1
@<TRIPOS>MOLECULE
*****
 58 61 0 0 0
SMALL
GASTEIGER

@<TRIPOS>ATOM
      1 C          63.2253   90.2497   12.3472 C.3     1  UNL1        0.1445
      2 C          63.0099   89.5998   11.0125 C.3     1  UNL1        0.0575
      3 C          63.0927   90.7563   10.0608 C.3     1  UNL1        0.0051
      4 C          62.7577   88.4351   10.1015 C.3     1  UNL1        0.1306
      5 C          62.5186   86.9866    9.7944 C.3     1  UNL1        0.1263
      6 C          62.3533   86.6576    8.4956 C.3     1  UNL1        0.0142
      7 C          62.3400   85.5408   10.1522 C.2     1  UNL1        0.3188
      8 O          62.1246   84.8908    8.8175 O.2     1  UNL1       -0.2500
      9 O          62.2572   84.3843   11.1039 O.3     1  UNL1       -0.4497
     10 C          62.2867   83.7462   12.4611 C.3     1  UNL1        0.1953
     11 C          62.4226   83.7527   13.9549 C.3     1  UNL1        0.1497
     12 C          62.3765   82.7479   15.0676 C.3     1  UNL1        0.0356
     13 O          62.1735   82.3685   13.4334 O.3     1  UNL1       -0.3808
     14 C          62.6380   84.4026   15.2895 C.3     1  UNL1        0.1451
     15 O          62.5552   83.2462   16.2412 O.3     1  UNL1       -0.3815
     16 C          62.8902   85.5673   16.2006 C.3     1  UNL1        0.0869
     17 C          62.9197   84.9292   17.5577 C.3     1  UNL1        0.0104
     18 C          63.1293   87.0159   16.5076 C.2     1  UNL1        0.1523
     19 O          63.2652   87.0225   18.0014 O.2     1  UNL1       -0.2960
     20 C          63.3079   88.4617   16.1499 C.3     1  UNL1        0.0601
     21 C          63.5233   89.1116   17.4845 C.3     1  UNL1        0.0078
     22 C          63.3907   89.6181   15.1982 C.3     1  UNL1        0.0366
     23 C          63.3612   90.2563   13.8409 C.3     1  UNL1        0.1137
     24 C          63.5110   91.6357   13.2711 C.3     1  UNL1        0.0318
     25 O          63.6065   91.2707   14.9183 O.3     1  UNL1       -0.3844
     26 H          62.0904   82.3971   12.4673 H       1  UNL1        0.2105
     27 H          62.9811   82.4701   15.8448 H       1  UNL1        0.2105
     28 H          63.6200   90.8286   15.7816 H       1  UNL1        0.2103
     29 C          62.0476   82.2975   12.1540 C.3     1  UNL1        0.0462
     30 C          63.1447   81.4661   11.5582 C.3     1  UNL1        0.0039
     31 O          63.4039   91.6954   11.9894 O.3     1  UNL1       -0.3278
     32 N          65.3652   96.6192    9.3445 N.2     1  UNL1       -0.2243
     33 C          65.4511   95.6356   10.4738 C.2     1  UNL1        0.2833
     34 O          64.5899   94.4204   10.6521 O.2     1  UNL1       -0.4466
     35 C          65.0198   93.7283   11.9115 C.3     1  UNL1        0.2426
     36 C          64.5308   92.4828   12.5895 C.3     1  UNL1        0.2785
     37 O          65.1686   92.0248   13.8675 O.3     1  UNL1       -0.3302
     38 C          66.2955   92.8122   14.4675 C.3     1  UNL1        0.1198
     39 C          66.9334   92.3542   15.7456 C.3     1  UNL1        0.0322
     40 C          66.7846   94.0577   13.7896 C.3     1  UNL1        0.0534
     41 C          66.1468   94.5158   12.5116 C.3     1  UNL1        0.1245
     42 N          66.4133   95.6945   11.6230 N.pl3   1  UNL1       -0.2603
     43 C          67.4584   96.7473   11.8447 C.3     1  UNL1        0.1166
     44 C          64.6569   96.8553    6.8560 C.3     1  UNL1        0.0285
     45 C          64.3463   96.4290    8.2602 C.3     1  UNL1        0.1301
     46 O          62.7282   89.0733    8.7444 O.3     1  UNL1       -0.3323
     47 C          61.4354   89.1727    7.9903 C.3     1  UNL1        0.2375
     48 C          61.2564   90.2337    6.9452 C.3     1  UNL1        0.0910
     49 C          59.9634   90.3331    6.1910 C.3     1  UNL1        0.1246
     50 C          58.9332   90.8259    5.2186 C.3     1  UNL1        0.0324
     51 C          58.8497   89.3714    6.4820 C.3     1  UNL1        0.1623
     52 O          57.5569   89.4708    5.7279 O.3     1  UNL1       -0.3796
     53 C          59.0287   88.3104    7.5271 C.3     1  UNL1        0.1468
     54 C          57.9149   87.3488    7.8180 C.3     1  UNL1        0.0348
     55 O          60.3215   88.2111    8.2812 O.3     1  UNL1       -0.3304
     56 H          57.6072   90.2042    5.0951 H       1  UNL1        0.2105
     57 O          60.7195   91.4659    5.5624 O.3     1  UNL1       -0.3532
     58 C          60.1642   92.1587    4.3534 C.3     1  UNL1        0.1740
@<TRIPOS>BOND
     1    44    45    1
     2    45    32    1
     3    32    33    2
     4    33    34    1
     5    35    34    1
     6    35    36    1
     7    36    31    1
     8     1    31    1
     9     1     2    1
    10     2     3    1
    11     2     4    1
    12     4    46    1
    13    47    46    1
    14    47    48    1
    15    48    49    1
    16    49    50    1
    17    49    57    1
    18    57    58    1
    19    49    51    1
    20    51    52    1
    21    51    53    1
    22    53    54    1
    23    53    55    1
    24     4     5    1
    25     5     6    1
    26     5     7    1
    27     7     8    2
    28     7     9    1
    29     9    10    1
    30    10    29    1
    31    29    30    1
    32    10    11    1
    33    11    12    1
    34    11    13    1
    35    11    14    1
    36    14    15    1
    37    14    16    1
    38    16    17    1
    39    16    18    1
    40    18    19    2
    41    18    20    1
    42    20    21    1
    43    20    22    1
    44    22    23    1
    45    23    24    1
    46    23    25    1
    47    36    37    1
    48    37    38    1
    49    38    39    1
    50    38    40    1
    51    41    40    1
    52    41    42    1
    53    42    43    1
    54    42    33    1
    55    41    35    1
    56    23     1    1
    57    55    47    1
    58    52    56    1
    59    13    26    1
    60    15    27    1
    61    25    28    1
