@<TRIPOS>MOLECULE
*****
 40 45 0 0 0
SMALL
GASTEIGER

@<TRIPOS>ATOM
      1 C          58.7896   89.3791    6.8128 C.2     1  UNL1        0.2553
      2 O          57.3216   89.3361    7.1186 O.2     1  UNL1       -0.2720
      3 N          59.3050   90.2865    5.7354 N.am    1  UNL1       -0.2773
      4 C          58.3525   91.1511    4.9638 C.3     1  UNL1        0.0949
      5 C          58.8680   92.0586    3.8864 C.3     1  UNL1        0.0375
      6 C          60.3359   92.1015    3.5806 C.3     1  UNL1        0.0615
      7 C          61.2884   91.2369    4.3522 C.3     1  UNL1        0.0375
      8 C          60.7729   90.3294    5.4296 C.3     1  UNL1        0.0949
      9 N          60.8513   93.0090    2.5033 N.3     1  UNL1       -0.2664
     10 C          59.8073   93.7505    1.7221 C.3     1  UNL1        0.0994
     11 C          59.9967   94.7211    0.5943 C.ar    1  UNL1       -0.0061
     12 C          58.6822   95.2380    0.0895 C.ar    1  UNL1       -0.0029
     13 C          58.6480   96.2237   -1.0406 C.ar    1  UNL1       -0.0003
     14 C          59.9283   96.6926   -1.6659 C.ar    1  UNL1       -0.0000
     15 C          61.2428   96.1757   -1.1611 C.ar    1  UNL1       -0.0003
     16 C          61.2770   95.1900   -0.0310 C.ar    1  UNL1       -0.0029
     17 C          62.6841   94.8040    0.3171 C.ar    1  UNL1       -0.0029
     18 C          63.6780   95.5077   -0.5586 C.ar    1  UNL1       -0.0003
     19 C          65.1462   95.2614   -0.3750 C.ar    1  UNL1       -0.0000
     20 C          65.6205   94.3112    0.6844 C.ar    1  UNL1       -0.0003
     21 C          64.6265   93.6075    1.5601 C.ar    1  UNL1       -0.0029
     22 C          63.1584   93.8539    1.3765 C.ar    1  UNL1       -0.0061
     23 C          62.3427   93.0550    2.3494 C.3     1  UNL1        0.0994
     24 N          61.3345   88.5503   10.1265 N.3     1  UNL1       -0.2688
     25 C          61.3976   87.3579    9.2187 C.3     1  UNL1        0.0756
     26 C          60.6013   87.3399    7.9476 C.3     1  UNL1        0.0590
     27 C          59.7420   88.5144    7.5844 C.3     1  UNL1        0.2042
     28 F          59.4743   87.6223    6.4086 F       1  UNL1       -0.2306
     29 C          59.6789   89.7068    8.4922 C.3     1  UNL1        0.0590
     30 C          60.4752   89.7248    9.7632 C.3     1  UNL1        0.0756
     31 C          62.1309   88.5682   11.3975 C.3     1  UNL1        0.0993
     32 N          65.1069   91.2014   14.7456 N.pl3   1  UNL1       -0.3426
     33 C          64.5271   91.0402   13.3716 C.ar    1  UNL1        0.1251
     34 C          63.6189   89.8848   13.0715 C.ar    1  UNL1        0.0310
     35 C          63.0391   89.7236   11.6975 C.ar    1  UNL1       -0.0018
     36 C          63.3676   90.7179   10.6235 C.ar    1  UNL1        0.0179
     37 C          64.2759   91.8734   10.9235 C.ar    1  UNL1        0.1000
     38 N          64.8556   92.0345   12.2975 N.ar    1  UNL1       -0.2296
     39 H          64.8913   90.5488   15.4505 H       1  UNL1        0.1437
     40 H          65.7030   91.9597   14.9425 H       1  UNL1        0.1437
@<TRIPOS>BOND
     1    32    33    1
     2    33    34   ar
     3    34    35   ar
     4    35    31    1
     5    31    24    1
     6    24    25    1
     7    25    26    1
     8    26    27    1
     9    27    28    1
    10    27     1    1
    11     1     2    2
    12     1     3   am
    13     3     4    1
    14     4     5    1
    15     5     6    1
    16     6     9    1
    17     9    10    1
    18    10    11    1
    19    11    12   ar
    20    12    13   ar
    21    13    14   ar
    22    14    15   ar
    23    15    16   ar
    24    16    17    1
    25    17    18   ar
    26    18    19   ar
    27    19    20   ar
    28    20    21   ar
    29    21    22   ar
    30    22    23    1
    31     6     7    1
    32     7     8    1
    33    27    29    1
    34    29    30    1
    35    35    36   ar
    36    36    37   ar
    37    37    38   ar
    38    38    33   ar
    39    30    24    1
    40     8     3    1
    41    23     9    1
    42    16    11   ar
    43    22    17   ar
    44    32    39    1
    45    32    40    1
@<TRIPOS>MOLECULE
*****
 40 45 0 0 0
SMALL
GASTEIGER

@<TRIPOS>ATOM
      1 C          58.8187   89.3550    6.8278 C.2     1  UNL1        0.2553
      2 O          57.3517   89.2992    7.1359 O.2     1  UNL1       -0.2720
      3 N          59.3233   90.2590    5.7423 N.am    1  UNL1       -0.2773
      4 C          58.3608   91.1072    4.9649 C.3     1  UNL1        0.0949
      5 C          58.8654   92.0112    3.8794 C.3     1  UNL1        0.0375
      6 C          60.3324   92.0670    3.5714 C.3     1  UNL1        0.0615
      7 C          61.2948   91.2187    4.3488 C.3     1  UNL1        0.0375
      8 C          60.7902   90.3148    5.4343 C.3     1  UNL1        0.0949
      9 N          60.8369   92.9709    2.4859 N.3     1  UNL1       -0.2664
     10 C          62.3282   93.0489    2.3446 C.3     1  UNL1        0.0994
     11 C          63.1344   93.8526    1.3678 C.ar    1  UNL1       -0.0061
     12 C          64.6060   93.6424    1.5679 C.ar    1  UNL1       -0.0029
     13 C          65.5916   94.3564    0.6911 C.ar    1  UNL1       -0.0003
     14 C          65.1055   95.2807   -0.3857 C.ar    1  UNL1       -0.0000
     15 C          63.6339   95.4909   -0.5858 C.ar    1  UNL1       -0.0003
     16 C          62.6483   94.7768    0.2910 C.ar    1  UNL1       -0.0029
     17 C          61.2361   95.1256   -0.0749 C.ar    1  UNL1       -0.0029
     18 C          61.1897   96.0945   -1.2191 C.ar    1  UNL1       -0.0003
     19 C          59.8685   96.5742   -1.7428 C.ar    1  UNL1       -0.0000
     20 C          58.5935   96.0849   -1.1223 C.ar    1  UNL1       -0.0003
     21 C          58.6399   95.1160    0.0219 C.ar    1  UNL1       -0.0029
     22 C          59.9610   94.6364    0.5455 C.ar    1  UNL1       -0.0061
     23 C          59.7834   93.6774    1.6852 C.3     1  UNL1        0.0994
     24 N          61.3626   88.5727   10.1536 N.3     1  UNL1       -0.2688
     25 C          61.4477   87.3794    9.2488 C.3     1  UNL1        0.0756
     26 C          60.6569   87.3464    7.9746 C.3     1  UNL1        0.0590
     27 C          59.7811   88.5068    7.6052 C.3     1  UNL1        0.2042
     28 F          59.5319   87.6081    6.4304 F       1  UNL1       -0.2306
     29 C          59.6961   89.7001    8.5100 C.3     1  UNL1        0.0590
     30 C          60.4868   89.7331    9.7843 C.3     1  UNL1        0.0756
     31 C          62.1534   88.6056   11.4278 C.3     1  UNL1        0.0993
     32 N          65.0924   91.2943   14.7644 N.pl3   1  UNL1       -0.3426
     33 C          64.5303   91.1086   13.3862 C.ar    1  UNL1        0.1251
     34 C          63.6229   89.9499   13.0961 C.ar    1  UNL1        0.0310
     35 C          63.0608   89.7642   11.7178 C.ar    1  UNL1       -0.0018
     36 C          63.4061   90.7371   10.6297 C.ar    1  UNL1        0.0179
     37 C          64.3135   91.8958   10.9197 C.ar    1  UNL1        0.1000
     38 N          64.8756   92.0816   12.2980 N.ar    1  UNL1       -0.2296
     39 H          64.8657   90.6557   15.4786 H       1  UNL1        0.1437
     40 H          65.6879   92.0547   14.9548 H       1  UNL1        0.1437
@<TRIPOS>BOND
     1    32    33    1
     2    33    34   ar
     3    34    35   ar
     4    35    31    1
     5    31    24    1
     6    24    25    1
     7    25    26    1
     8    26    27    1
     9    27    28    1
    10    27     1    1
    11     1     2    2
    12     1     3   am
    13     3     4    1
    14     4     5    1
    15     5     6    1
    16     6     9    1
    17     9    10    1
    18    10    11    1
    19    11    12   ar
    20    12    13   ar
    21    13    14   ar
    22    14    15   ar
    23    15    16   ar
    24    16    17    1
    25    17    18   ar
    26    18    19   ar
    27    19    20   ar
    28    20    21   ar
    29    21    22   ar
    30    22    23    1
    31     6     7    1
    32     7     8    1
    33    27    29    1
    34    29    30    1
    35    35    36   ar
    36    36    37   ar
    37    37    38   ar
    38    38    33   ar
    39    30    24    1
    40     8     3    1
    41    23     9    1
    42    16    11   ar
    43    22    17   ar
    44    32    39    1
    45    32    40    1
@<TRIPOS>MOLECULE
*****
 40 45 0 0 0
SMALL
GASTEIGER

@<TRIPOS>ATOM
      1 C          59.0840   89.1937    7.2546 C.2     1  UNL1        0.2553
      2 O          57.6449   88.9004    7.5598 O.2     1  UNL1       -0.2720
      3 N          59.4396   90.0865    6.1029 N.am    1  UNL1       -0.2773
      4 C          58.3561   90.6860    5.2563 C.3     1  UNL1        0.0949
      5 C          58.7118   91.5788    4.1045 C.3     1  UNL1        0.0375
      6 C          60.1508   91.8720    3.7994 C.3     1  UNL1        0.0615
      7 C          61.2343   91.2725    4.6460 C.3     1  UNL1        0.0375
      8 C          60.8787   90.3797    5.7977 C.3     1  UNL1        0.0949
      9 N          60.5064   92.7648    2.6477 N.3     1  UNL1       -0.2664
     10 C          59.3906   93.0718    1.6935 C.3     1  UNL1        0.0994
     11 C          59.4235   93.9224    0.4583 C.ar    1  UNL1       -0.0061
     12 C          58.0824   93.9673   -0.2121 C.ar    1  UNL1       -0.0029
     13 C          57.8984   94.7658   -1.4684 C.ar    1  UNL1       -0.0003
     14 C          59.0554   95.5193   -2.0544 C.ar    1  UNL1       -0.0000
     15 C          60.3965   95.4745   -1.3840 C.ar    1  UNL1       -0.0003
     16 C          60.5805   94.6760   -0.1276 C.ar    1  UNL1       -0.0029
     17 C          61.9904   94.7651    0.3768 C.ar    1  UNL1       -0.0029
     18 C          62.8365   95.6287   -0.5110 C.ar    1  UNL1       -0.0003
     19 C          64.2836   95.8500   -0.1840 C.ar    1  UNL1       -0.0000
     20 C          64.8846   95.2075    1.0310 C.ar    1  UNL1       -0.0003
     21 C          64.0384   94.3439    1.9188 C.ar    1  UNL1       -0.0029
     22 C          62.5914   94.1227    1.5917 C.ar    1  UNL1       -0.0061
     23 C          61.9310   93.2325    2.6024 C.3     1  UNL1        0.0994
     24 N          61.6837   86.0244    8.4128 N.3     1  UNL1       -0.2688
     25 C          61.9818   87.1852    9.3148 C.3     1  UNL1        0.0756
     26 C          61.2237   88.4701    9.1590 C.3     1  UNL1        0.0590
     27 C          60.1675   88.5941    8.1012 C.3     1  UNL1        0.2042
     28 F          60.0893   89.9632    8.7091 F       1  UNL1       -0.2306
     29 C          59.8693   87.4333    7.1993 C.3     1  UNL1        0.0590
     30 C          60.6274   86.1484    7.3550 C.3     1  UNL1        0.0756
     31 C          62.4419   84.7395    8.5687 C.3     1  UNL1        0.0993
     32 N          62.2754   85.0649   13.7519 N.pl3   1  UNL1       -0.3426
     33 C          62.8918   84.5043   12.5047 C.ar    1  UNL1        0.1251
     34 C          62.3586   84.9022   11.1603 C.ar    1  UNL1        0.0310
     35 C          62.9752   84.3416    9.9130 C.ar    1  UNL1       -0.0018
     36 C          64.1248   83.3832   10.0101 C.ar    1  UNL1        0.0179
     37 C          64.6581   82.9852   11.3545 C.ar    1  UNL1        0.1000
     38 N          64.0416   83.5458   12.6018 N.ar    1  UNL1       -0.2296
     39 H          61.5208   85.6940   13.6882 H       1  UNL1        0.1437
     40 H          62.6254   84.8038   14.6343 H       1  UNL1        0.1437
@<TRIPOS>BOND
     1    32    33    1
     2    33    34   ar
     3    34    35   ar
     4    35    31    1
     5    31    24    1
     6    24    25    1
     7    25    26    1
     8    26    27    1
     9    27    28    1
    10    27     1    1
    11     1     2    2
    12     1     3   am
    13     3     4    1
    14     4     5    1
    15     5     6    1
    16     6     9    1
    17     9    10    1
    18    10    11    1
    19    11    12   ar
    20    12    13   ar
    21    13    14   ar
    22    14    15   ar
    23    15    16   ar
    24    16    17    1
    25    17    18   ar
    26    18    19   ar
    27    19    20   ar
    28    20    21   ar
    29    21    22   ar
    30    22    23    1
    31     6     7    1
    32     7     8    1
    33    27    29    1
    34    29    30    1
    35    35    36   ar
    36    36    37   ar
    37    37    38   ar
    38    38    33   ar
    39    30    24    1
    40     8     3    1
    41    23     9    1
    42    16    11   ar
    43    22    17   ar
    44    32    39    1
    45    32    40    1
@<TRIPOS>MOLECULE
*****
 40 45 0 0 0
SMALL
GASTEIGER

@<TRIPOS>ATOM
      1 C          59.0563   89.3337    7.2043 C.2     1  UNL1        0.2553
      2 O          57.6216   88.9662    7.4425 O.2     1  UNL1       -0.2720
      3 N          59.4237   90.2074    6.0418 N.am    1  UNL1       -0.2773
      4 C          58.3563   90.7138    5.1173 C.3     1  UNL1        0.0949
      5 C          58.7237   91.5876    3.9548 C.3     1  UNL1        0.0375
      6 C          60.1584   91.9551    3.7166 C.3     1  UNL1        0.0615
      7 C          61.2257   91.4487    4.6411 C.3     1  UNL1        0.0375
      8 C          60.8583   90.5749    5.8036 C.3     1  UNL1        0.0949
      9 N          60.5257   92.8288    2.5541 N.3     1  UNL1       -0.2664
     10 C          61.9655   93.2432    2.4807 C.3     1  UNL1        0.0994
     11 C          62.6399   94.1038    1.4538 C.ar    1  UNL1       -0.0061
     12 C          64.0999   94.2726    1.7536 C.ar    1  UNL1       -0.0029
     13 C          64.9610   95.1003    0.8462 C.ar    1  UNL1       -0.0003
     14 C          64.3622   95.7591   -0.3610 C.ar    1  UNL1       -0.0000
     15 C          62.9022   95.5902   -0.6608 C.ar    1  UNL1       -0.0003
     16 C          62.0411   94.7626    0.2466 C.ar    1  UNL1       -0.0029
     17 C          60.6199   94.7235   -0.2318 C.ar    1  UNL1       -0.0029
     18 C          60.4426   95.5226   -1.4888 C.ar    1  UNL1       -0.0003
     19 C          59.0922   95.6143   -2.1352 C.ar    1  UNL1       -0.0000
     20 C          57.9189   94.9068   -1.5245 C.ar    1  UNL1       -0.0003
     21 C          58.0962   94.1076   -0.2675 C.ar    1  UNL1       -0.0029
     22 C          59.4466   94.0160    0.3788 C.ar    1  UNL1       -0.0061
     23 C          59.4047   93.1728    1.6186 C.3     1  UNL1        0.0994
     24 N          61.6805   86.3251    8.6898 N.3     1  UNL1       -0.2688
     25 C          61.9257   87.5598    9.5055 C.3     1  UNL1        0.0756
     26 C          61.1473   88.8109    9.2250 C.3     1  UNL1        0.0590
     27 C          60.1236   88.8273    8.1287 C.3     1  UNL1        0.2042
     28 F          59.9981   90.2379    8.6233 F       1  UNL1       -0.2306
     29 C          59.8784   87.5926    7.3130 C.3     1  UNL1        0.0590
     30 C          60.6568   86.3415    7.5935 C.3     1  UNL1        0.0756
     31 C          62.4590   85.0740    8.9704 C.3     1  UNL1        0.0993
     32 N          64.9872   82.0439   12.3506 N.pl3   1  UNL1       -0.3426
     33 C          64.0406   83.1743   12.0751 C.ar    1  UNL1        0.1251
     34 C          63.7231   83.5589   10.6605 C.ar    1  UNL1        0.0310
     35 C          62.7764   84.6895   10.3850 C.ar    1  UNL1       -0.0018
     36 C          62.1473   85.4354   11.5242 C.ar    1  UNL1        0.0179
     37 C          62.4648   85.0508   12.9389 C.ar    1  UNL1        0.1000
     38 N          63.4114   83.9203   13.2144 N.ar    1  UNL1       -0.2296
     39 H          65.4001   81.5543   11.6029 H       1  UNL1        0.1437
     40 H          65.1956   81.7915   13.2791 H       1  UNL1        0.1437
@<TRIPOS>BOND
     1    32    33    1
     2    33    34   ar
     3    34    35   ar
     4    35    31    1
     5    31    24    1
     6    24    25    1
     7    25    26    1
     8    26    27    1
     9    27    28    1
    10    27     1    1
    11     1     2    2
    12     1     3   am
    13     3     4    1
    14     4     5    1
    15     5     6    1
    16     6     9    1
    17     9    10    1
    18    10    11    1
    19    11    12   ar
    20    12    13   ar
    21    13    14   ar
    22    14    15   ar
    23    15    16   ar
    24    16    17    1
    25    17    18   ar
    26    18    19   ar
    27    19    20   ar
    28    20    21   ar
    29    21    22   ar
    30    22    23    1
    31     6     7    1
    32     7     8    1
    33    27    29    1
    34    29    30    1
    35    35    36   ar
    36    36    37   ar
    37    37    38   ar
    38    38    33   ar
    39    30    24    1
    40     8     3    1
    41    23     9    1
    42    16    11   ar
    43    22    17   ar
    44    32    39    1
    45    32    40    1
@<TRIPOS>MOLECULE
*****
 40 45 0 0 0
SMALL
GASTEIGER

@<TRIPOS>ATOM
      1 C          61.4078   86.6650   10.4922 C.2     1  UNL1        0.2553
      2 O          61.2673   85.4862   11.4091 O.2     1  UNL1       -0.2720
      3 N          62.2213   87.8519   10.9157 N.am    1  UNL1       -0.2773
      4 C          62.8944   87.8600   12.2562 C.3     1  UNL1        0.0949
      5 C          63.7079   89.0469   12.6797 C.3     1  UNL1        0.0375
      6 C          63.8484   90.2257   11.7628 C.3     1  UNL1        0.0615
      7 C          63.1753   90.2176   10.4223 C.3     1  UNL1        0.0375
      8 C          62.3617   89.0307    9.9988 C.3     1  UNL1        0.0949
      9 N          64.6619   91.4126   12.1864 N.3     1  UNL1       -0.2664
     10 C          64.6497   92.5797   11.2443 C.3     1  UNL1        0.0994
     11 C          65.3526   93.8980   11.3791 C.ar    1  UNL1       -0.0061
     12 C          65.0730   94.7906   10.2065 C.ar    1  UNL1       -0.0029
     13 C          65.6821   96.1599   10.1443 C.ar    1  UNL1       -0.0003
     14 C          66.5710   96.6365   11.2546 C.ar    1  UNL1       -0.0000
     15 C          66.8506   95.7439   12.4271 C.ar    1  UNL1       -0.0003
     16 C          66.2415   94.3746   12.4894 C.ar    1  UNL1       -0.0029
     17 C          66.6469   93.6507   13.7391 C.ar    1  UNL1       -0.0029
     18 C          67.5523   94.4911   14.5899 C.ar    1  UNL1       -0.0003
     19 C          68.0745   93.9523   15.8887 C.ar    1  UNL1       -0.0000
     20 C          67.6912   92.5730   16.3367 C.ar    1  UNL1       -0.0003
     21 C          66.7857   91.7326   15.4859 C.ar    1  UNL1       -0.0029
     22 C          66.2636   92.2715   14.1871 C.ar    1  UNL1       -0.0061
     23 C          65.3802   91.2754   13.4961 C.3     1  UNL1        0.0994
     24 N          59.0312   88.4218    7.4246 N.3     1  UNL1       -0.2688
     25 C          59.4293   87.0587    6.9416 C.3     1  UNL1        0.0756
     26 C          60.2810   86.1761    7.8052 C.3     1  UNL1        0.0590
     27 C          60.7346   86.6568    9.1517 C.3     1  UNL1        0.2042
     28 F          61.3665   85.2965    9.1343 F       1  UNL1       -0.2306
     29 C          60.3366   88.0200    9.6346 C.3     1  UNL1        0.0590
     30 C          59.4848   88.9025    8.7711 C.3     1  UNL1        0.0756
     31 C          58.1795   89.3043    6.5609 C.3     1  UNL1        0.0993
     32 N          62.3764   91.1521    4.1174 N.pl3   1  UNL1       -0.3426
     33 C          60.9188   91.2571    4.4557 C.ar    1  UNL1        0.1251
     34 C          60.2779   90.2282    5.3392 C.ar    1  UNL1        0.0310
     35 C          58.8203   90.3332    5.6775 C.ar    1  UNL1       -0.0018
     36 C          58.0037   91.4672    5.1324 C.ar    1  UNL1        0.0179
     37 C          58.6446   92.4962    4.2489 C.ar    1  UNL1        0.1000
     38 N          60.1021   92.3912    3.9106 N.ar    1  UNL1       -0.2296
     39 H          62.9124   90.4079    4.4752 H       1  UNL1        0.1437
     40 H          62.7970   91.8275    3.5376 H       1  UNL1        0.1437
@<TRIPOS>BOND
     1    32    33    1
     2    33    34   ar
     3    34    35   ar
     4    35    31    1
     5    31    24    1
     6    24    25    1
     7    25    26    1
     8    26    27    1
     9    27    28    1
    10    27     1    1
    11     1     2    2
    12     1     3   am
    13     3     4    1
    14     4     5    1
    15     5     6    1
    16     6     9    1
    17     9    10    1
    18    10    11    1
    19    11    12   ar
    20    12    13   ar
    21    13    14   ar
    22    14    15   ar
    23    15    16   ar
    24    16    17    1
    25    17    18   ar
    26    18    19   ar
    27    19    20   ar
    28    20    21   ar
    29    21    22   ar
    30    22    23    1
    31     6     7    1
    32     7     8    1
    33    27    29    1
    34    29    30    1
    35    35    36   ar
    36    36    37   ar
    37    37    38   ar
    38    38    33   ar
    39    30    24    1
    40     8     3    1
    41    23     9    1
    42    16    11   ar
    43    22    17   ar
    44    32    39    1
    45    32    40    1
@<TRIPOS>MOLECULE
*****
 40 45 0 0 0
SMALL
GASTEIGER

@<TRIPOS>ATOM
      1 C          61.4033   86.6648   10.4987 C.2     1  UNL1        0.2553
      2 O          61.2596   85.4873   11.4169 O.2     1  UNL1       -0.2720
      3 N          62.2182   87.8508   10.9218 N.am    1  UNL1       -0.2773
      4 C          62.8896   87.8595   12.2632 C.3     1  UNL1        0.0949
      5 C          63.7046   89.0456   12.6862 C.3     1  UNL1        0.0375
      6 C          63.8482   90.2230   11.7680 C.3     1  UNL1        0.0615
      7 C          63.1768   90.2143   10.4266 C.3     1  UNL1        0.0375
      8 C          62.3618   89.0282   10.0035 C.3     1  UNL1        0.0949
      9 N          64.6631   91.4090   12.1911 N.3     1  UNL1       -0.2664
     10 C          65.3800   91.2721   13.5016 C.3     1  UNL1        0.0994
     11 C          66.2642   92.2675   14.1925 C.ar    1  UNL1       -0.0061
     12 C          66.7843   91.7292   15.4924 C.ar    1  UNL1       -0.0029
     13 C          67.6902   92.5691   16.3432 C.ar    1  UNL1       -0.0003
     14 C          68.0760   93.9473   15.8941 C.ar    1  UNL1       -0.0000
     15 C          67.5560   94.4856   14.5942 C.ar    1  UNL1       -0.0003
     16 C          66.6501   93.6457   13.7434 C.ar    1  UNL1       -0.0029
     17 C          66.2469   94.3689   12.4926 C.ar    1  UNL1       -0.0029
     18 C          66.8583   95.7372   12.4295 C.ar    1  UNL1       -0.0003
     19 C          66.5812   96.6291   11.2557 C.ar    1  UNL1       -0.0000
     20 C          65.6927   96.1527   10.1450 C.ar    1  UNL1       -0.0003
     21 C          65.0813   94.7844   10.2082 C.ar    1  UNL1       -0.0029
     22 C          65.3584   93.8925   11.3819 C.ar    1  UNL1       -0.0061
     23 C          64.6536   92.5752   11.2478 C.3     1  UNL1        0.0994
     24 N          59.0385   88.4239    7.4233 N.3     1  UNL1       -0.2688
     25 C          59.4312   87.0578    6.9445 C.3     1  UNL1        0.0756
     26 C          60.2779   86.1738    7.8115 C.3     1  UNL1        0.0590
     27 C          60.7319   86.6560    9.1573 C.3     1  UNL1        0.2042
     28 F          61.3578   85.2929    9.1443 F       1  UNL1       -0.2306
     29 C          60.3392   88.0222    9.6361 C.3     1  UNL1        0.0590
     30 C          59.4925   88.9062    8.7692 C.3     1  UNL1        0.0756
     31 C          58.1918   89.3079    6.5563 C.3     1  UNL1        0.0993
     32 N          62.3991   91.1404    4.1191 N.pl3   1  UNL1       -0.3426
     33 C          60.9417   91.2514    4.4563 C.ar    1  UNL1        0.1251
     34 C          60.2954   90.2241    5.3377 C.ar    1  UNL1        0.0310
     35 C          58.8380   90.3352    5.6749 C.ar    1  UNL1       -0.0018
     36 C          58.0269   91.4735    5.1306 C.ar    1  UNL1        0.0179
     37 C          58.6732   92.5009    4.2492 C.ar    1  UNL1        0.1000
     38 N          60.1306   92.3899    3.9120 N.ar    1  UNL1       -0.2296
     39 H          62.9315   90.3932    4.4763 H       1  UNL1        0.1437
     40 H          62.8233   91.8147    3.5406 H       1  UNL1        0.1437
@<TRIPOS>BOND
     1    32    33    1
     2    33    34   ar
     3    34    35   ar
     4    35    31    1
     5    31    24    1
     6    24    25    1
     7    25    26    1
     8    26    27    1
     9    27    28    1
    10    27     1    1
    11     1     2    2
    12     1     3   am
    13     3     4    1
    14     4     5    1
    15     5     6    1
    16     6     9    1
    17     9    10    1
    18    10    11    1
    19    11    12   ar
    20    12    13   ar
    21    13    14   ar
    22    14    15   ar
    23    15    16   ar
    24    16    17    1
    25    17    18   ar
    26    18    19   ar
    27    19    20   ar
    28    20    21   ar
    29    21    22   ar
    30    22    23    1
    31     6     7    1
    32     7     8    1
    33    27    29    1
    34    29    30    1
    35    35    36   ar
    36    36    37   ar
    37    37    38   ar
    38    38    33   ar
    39    30    24    1
    40     8     3    1
    41    23     9    1
    42    16    11   ar
    43    22    17   ar
    44    32    39    1
    45    32    40    1
@<TRIPOS>MOLECULE
*****
 40 45 0 0 0
SMALL
GASTEIGER

@<TRIPOS>ATOM
      1 C          60.5778   87.6385    9.1800 C.2     1  UNL1        0.2553
      2 O          59.0975   87.8739    9.1207 O.2     1  UNL1       -0.2720
      3 N          61.4815   88.6876    9.7567 N.am    1  UNL1       -0.2773
      4 C          60.9051   89.9722   10.2740 C.3     1  UNL1        0.0949
      5 C          61.8089   91.0213   10.8507 C.3     1  UNL1        0.0375
      6 C          63.2891   90.7858   10.9100 C.3     1  UNL1        0.0615
      7 C          63.8656   89.5012   10.3927 C.3     1  UNL1        0.0375
      8 C          62.9618   88.4521    9.8160 C.3     1  UNL1        0.0949
      9 N          64.1929   91.8349   11.4867 N.3     1  UNL1       -0.2664
     10 C          64.3860   93.0616   10.6453 C.3     1  UNL1        0.0994
     11 C          65.2180   94.2750   10.9379 C.ar    1  UNL1       -0.0061
     12 C          65.1342   95.2780    9.8258 C.ar    1  UNL1       -0.0029
     13 C          65.8948   96.5674    9.9199 C.ar    1  UNL1       -0.0003
     14 C          66.7392   96.8538   11.1262 C.ar    1  UNL1       -0.0000
     15 C          66.8229   95.8507   12.2383 C.ar    1  UNL1       -0.0003
     16 C          66.0623   94.5613   12.1441 C.ar    1  UNL1       -0.0029
     17 C          66.2832   93.7050   13.3557 C.ar    1  UNL1       -0.0029
     18 C          67.2052   94.3687   14.3352 C.ar    1  UNL1       -0.0003
     19 C          67.5584   93.6784   15.6192 C.ar    1  UNL1       -0.0000
     20 C          66.9895   92.3243   15.9238 C.ar    1  UNL1       -0.0003
     21 C          66.0675   91.6605   14.9443 C.ar    1  UNL1       -0.0029
     22 C          65.7144   92.3509   13.6604 C.ar    1  UNL1       -0.0061
     23 C          64.7841   91.5186   12.8285 C.3     1  UNL1        0.0994
     24 N          62.8593   84.0642    9.5844 N.3     1  UNL1       -0.2688
     25 C          62.3296   84.0875    8.1813 C.3     1  UNL1        0.0756
     26 C          61.4770   85.2324    7.7204 C.3     1  UNL1        0.0590
     27 C          61.1542   86.3539    8.6627 C.3     1  UNL1        0.2042
     28 F          60.4242   86.8234    7.4392 F       1  UNL1       -0.2306
     29 C          61.6839   86.3306   10.0658 C.3     1  UNL1        0.0590
     30 C          62.5365   85.1857   10.5267 C.3     1  UNL1        0.0756
     31 C          63.7119   82.9193   10.0452 C.3     1  UNL1        0.0993
     32 N          64.3202   83.1742   15.1992 N.pl3   1  UNL1       -0.3426
     33 C          63.8073   82.4573   13.9856 C.ar    1  UNL1        0.1251
     34 C          64.0161   83.0467   12.6222 C.ar    1  UNL1        0.0310
     35 C          63.5031   82.3298   11.4085 C.ar    1  UNL1       -0.0018
     36 C          62.7815   81.0234   11.5583 C.ar    1  UNL1        0.0179
     37 C          62.5727   80.4339   12.9218 C.ar    1  UNL1        0.1000
     38 N          63.0856   81.1508   14.1354 N.ar    1  UNL1       -0.2296
     39 H          64.7939   84.0316   15.1009 H       1  UNL1        0.1437
     40 H          64.1832   82.7873   16.0941 H       1  UNL1        0.1437
@<TRIPOS>BOND
     1    32    33    1
     2    33    34   ar
     3    34    35   ar
     4    35    31    1
     5    31    24    1
     6    24    25    1
     7    25    26    1
     8    26    27    1
     9    27    28    1
    10    27     1    1
    11     1     2    2
    12     1     3   am
    13     3     4    1
    14     4     5    1
    15     5     6    1
    16     6     9    1
    17     9    10    1
    18    10    11    1
    19    11    12   ar
    20    12    13   ar
    21    13    14   ar
    22    14    15   ar
    23    15    16   ar
    24    16    17    1
    25    17    18   ar
    26    18    19   ar
    27    19    20   ar
    28    20    21   ar
    29    21    22   ar
    30    22    23    1
    31     6     7    1
    32     7     8    1
    33    27    29    1
    34    29    30    1
    35    35    36   ar
    36    36    37   ar
    37    37    38   ar
    38    38    33   ar
    39    30    24    1
    40     8     3    1
    41    23     9    1
    42    16    11   ar
    43    22    17   ar
    44    32    39    1
    45    32    40    1
@<TRIPOS>MOLECULE
*****
 40 45 0 0 0
SMALL
GASTEIGER

@<TRIPOS>ATOM
      1 C          60.5826   87.6548    9.1783 C.2     1  UNL1        0.2553
      2 O          59.1027   87.8922    9.1163 O.2     1  UNL1       -0.2720
      3 N          61.4867   88.7023    9.7572 N.am    1  UNL1       -0.2773
      4 C          60.9109   89.9875   10.2740 C.3     1  UNL1        0.0949
      5 C          61.8151   91.0351   10.8529 C.3     1  UNL1        0.0375
      6 C          63.2949   90.7976   10.9150 C.3     1  UNL1        0.0615
      7 C          63.8706   89.5125   10.3981 C.3     1  UNL1        0.0375
      8 C          62.9664   88.4649    9.8193 C.3     1  UNL1        0.0949
      9 N          64.1989   91.8452   11.4938 N.3     1  UNL1       -0.2664
     10 C          64.7828   91.5299   12.8391 C.3     1  UNL1        0.0994
     11 C          65.7115   92.3611   13.6737 C.ar    1  UNL1       -0.0061
     12 C          66.0565   91.6723   14.9607 C.ar    1  UNL1       -0.0029
     13 C          66.9758   92.3353   15.9432 C.ar    1  UNL1       -0.0003
     14 C          67.5501   93.6871   15.6387 C.ar    1  UNL1       -0.0000
     15 C          67.2051   94.3759   14.3516 C.ar    1  UNL1       -0.0003
     16 C          66.2858   93.7129   13.3692 C.ar    1  UNL1       -0.0029
     17 C          66.0732   94.5674   12.1548 C.ar    1  UNL1       -0.0029
     18 C          66.8371   95.8548   12.2500 C.ar    1  UNL1       -0.0003
     19 C          66.7617   96.8559   11.1355 C.ar    1  UNL1       -0.0000
     20 C          65.9223   96.5696    9.9258 C.ar    1  UNL1       -0.0003
     21 C          65.1583   95.2822    9.8306 C.ar    1  UNL1       -0.0029
     22 C          65.2338   94.2812   10.9450 C.ar    1  UNL1       -0.0061
     23 C          64.3997   93.0696   10.6509 C.3     1  UNL1        0.0994
     24 N          62.8620   84.0793    9.5841 N.3     1  UNL1       -0.2688
     25 C          62.3323   84.1024    8.1809 C.3     1  UNL1        0.0756
     26 C          61.4804   85.2476    7.7196 C.3     1  UNL1        0.0590
     27 C          61.1582   86.3696    8.6615 C.3     1  UNL1        0.2042
     28 F          60.4286   86.8391    7.4378 F       1  UNL1       -0.2306
     29 C          61.6879   86.3465   10.0646 C.3     1  UNL1        0.0590
     30 C          62.5398   85.2013   10.5260 C.3     1  UNL1        0.0756
     31 C          63.7139   82.9340   10.0453 C.3     1  UNL1        0.0993
     32 N          64.3510   83.2128   15.1947 N.pl3   1  UNL1       -0.3426
     33 C          63.8299   82.4910   13.9874 C.ar    1  UNL1        0.1251
     34 C          64.0324   83.0734   12.6200 C.ar    1  UNL1        0.0310
     35 C          63.5114   82.3516   11.4126 C.ar    1  UNL1       -0.0018
     36 C          62.7878   81.0475   11.5728 C.ar    1  UNL1        0.0179
     37 C          62.5853   80.4651   12.9402 C.ar    1  UNL1        0.1000
     38 N          63.1063   81.1868   14.1475 N.ar    1  UNL1       -0.2296
     39 H          64.8259   84.0687   15.0896 H       1  UNL1        0.1437
     40 H          64.2181   82.8305   16.0922 H       1  UNL1        0.1437
@<TRIPOS>BOND
     1    32    33    1
     2    33    34   ar
     3    34    35   ar
     4    35    31    1
     5    31    24    1
     6    24    25    1
     7    25    26    1
     8    26    27    1
     9    27    28    1
    10    27     1    1
    11     1     2    2
    12     1     3   am
    13     3     4    1
    14     4     5    1
    15     5     6    1
    16     6     9    1
    17     9    10    1
    18    10    11    1
    19    11    12   ar
    20    12    13   ar
    21    13    14   ar
    22    14    15   ar
    23    15    16   ar
    24    16    17    1
    25    17    18   ar
    26    18    19   ar
    27    19    20   ar
    28    20    21   ar
    29    21    22   ar
    30    22    23    1
    31     6     7    1
    32     7     8    1
    33    27    29    1
    34    29    30    1
    35    35    36   ar
    36    36    37   ar
    37    37    38   ar
    38    38    33   ar
    39    30    24    1
    40     8     3    1
    41    23     9    1
    42    16    11   ar
    43    22    17   ar
    44    32    39    1
    45    32    40    1
@<TRIPOS>MOLECULE
*****
 40 45 0 0 0
SMALL
GASTEIGER

@<TRIPOS>ATOM
      1 C          59.0198   88.5942    6.5131 C.2     1  UNL1        0.2553
      2 O          58.5989   87.3119    5.8582 O.2     1  UNL1       -0.2720
      3 N          59.8775   88.5618    7.7432 N.am    1  UNL1       -0.2773
      4 C          60.3146   87.2471    8.3184 C.3     1  UNL1        0.0949
      5 C          61.1724   87.2148    9.5485 C.3     1  UNL1        0.0375
      6 C          61.5932   88.4970   10.2034 C.3     1  UNL1        0.0615
      7 C          61.1562   89.8117    9.6281 C.3     1  UNL1        0.0375
      8 C          60.2983   89.8440    8.3980 C.3     1  UNL1        0.0949
      9 N          62.4510   88.4646   11.4334 N.3     1  UNL1       -0.2664
     10 C          63.0061   89.7864   11.8748 C.3     1  UNL1        0.0994
     11 C          63.8875   90.0848   13.0512 C.ar    1  UNL1       -0.0061
     12 C          64.2161   91.5460   13.1332 C.ar    1  UNL1       -0.0029
     13 C          65.0887   92.0575   14.2408 C.ar    1  UNL1       -0.0003
     14 C          65.6328   91.1078   15.2664 C.ar    1  UNL1       -0.0000
     15 C          65.3043   89.6465   15.1845 C.ar    1  UNL1       -0.0003
     16 C          64.4316   89.1350   14.0769 C.ar    1  UNL1       -0.0029
     17 C          64.2286   87.6524   14.1793 C.ar    1  UNL1       -0.0029
     18 C          64.9530   87.0805   15.3619 C.ar    1  UNL1       -0.0003
     19 C          64.8802   85.6096   15.6466 C.ar    1  UNL1       -0.0000
     20 C          64.0829   84.7105   14.7488 C.ar    1  UNL1       -0.0003
     21 C          63.3586   85.2824   13.5663 C.ar    1  UNL1       -0.0029
     22 C          63.4314   86.7532   13.2816 C.ar    1  UNL1       -0.0061
     23 C          62.6403   87.1147   12.0595 C.3     1  UNL1        0.0994
     24 N          59.6847   92.2019    4.3482 N.3     1  UNL1       -0.2688
     25 C          58.2516   92.2163    4.7910 C.3     1  UNL1        0.0756
     26 C          57.7006   91.0697    5.5858 C.3     1  UNL1        0.0590
     27 C          58.5827   89.9088    5.9379 C.3     1  UNL1        0.2042
     28 F          57.3014   89.4666    6.5804 F       1  UNL1       -0.2306
     29 C          60.0158   89.8944    5.4951 C.3     1  UNL1        0.0590
     30 C          60.5668   91.0409    4.7003 C.3     1  UNL1        0.0756
     31 C          60.2356   93.3485    3.5534 C.3     1  UNL1        0.0993
     32 N          58.7964   92.1869   -1.3024 N.pl3   1  UNL1       -0.3426
     33 C          59.8615   92.5796   -0.3219 C.ar    1  UNL1        0.1251
     34 C          59.5160   92.7677    1.1255 C.ar    1  UNL1        0.0310
     35 C          60.5812   93.1604    2.1060 C.ar    1  UNL1       -0.0018
     36 C          61.9918   93.3650    1.6389 C.ar    1  UNL1        0.0179
     37 C          62.3374   93.1769    0.1914 C.ar    1  UNL1        0.1000
     38 N          61.2722   92.7842   -0.7890 N.ar    1  UNL1       -0.2296
     39 H          57.8705   92.0526   -0.9958 H       1  UNL1        0.1437
     40 H          59.0231   92.0634   -2.2524 H       1  UNL1        0.1437
@<TRIPOS>BOND
     1    32    33    1
     2    33    34   ar
     3    34    35   ar
     4    35    31    1
     5    31    24    1
     6    24    25    1
     7    25    26    1
     8    26    27    1
     9    27    28    1
    10    27     1    1
    11     1     2    2
    12     1     3   am
    13     3     4    1
    14     4     5    1
    15     5     6    1
    16     6     9    1
    17     9    10    1
    18    10    11    1
    19    11    12   ar
    20    12    13   ar
    21    13    14   ar
    22    14    15   ar
    23    15    16   ar
    24    16    17    1
    25    17    18   ar
    26    18    19   ar
    27    19    20   ar
    28    20    21   ar
    29    21    22   ar
    30    22    23    1
    31     6     7    1
    32     7     8    1
    33    27    29    1
    34    29    30    1
    35    35    36   ar
    36    36    37   ar
    37    37    38   ar
    38    38    33   ar
    39    30    24    1
    40     8     3    1
    41    23     9    1
    42    16    11   ar
    43    22    17   ar
    44    32    39    1
    45    32    40    1
