@<TRIPOS>MOLECULE
*****
 25 27 0 0 0
SMALL
GASTEIGER

@<TRIPOS>ATOM
      1 C          63.0381   86.2345   16.4198 C.2     1  UNL1        0.2490
      2 O          62.2897   85.9325   17.6841 O.2     1  UNL1       -0.2699
      3 N          63.4366   87.6455   16.1029 N.am    1  UNL1       -0.2754
      4 C          64.1850   87.9475   14.8386 C.3     1  UNL1        0.0981
      5 C          64.5835   89.3586   14.5218 C.3     1  UNL1        0.0442
      6 C          64.2336   90.4674   15.4693 C.2     1  UNL1       -0.0326
      7 C          64.6321   91.8784   15.1525 C.2     1  UNL1        0.0412
      8 C          63.4852   90.1654   16.7337 C.3     1  UNL1        0.0442
      9 C          63.0867   88.7544   17.0505 C.3     1  UNL1        0.0981
     10 C          61.8627   81.7026   14.1659 C.3     1  UNL1        0.0310
     11 C          62.8003   82.8596   14.3453 C.ar    1  UNL1       -0.0217
     12 C          64.0877   82.9077   13.5772 C.ar    1  UNL1       -0.0043
     13 C          65.0253   84.0647   13.7566 C.ar    1  UNL1       -0.0002
     14 C          64.6755   85.1737   14.7041 C.ar    1  UNL1        0.0045
     15 C          63.3880   85.1256   15.4722 C.ar    1  UNL1        0.0533
     16 C          62.4504   83.9685   15.2928 C.ar    1  UNL1        0.0003
     17 C          65.3805   92.1804   13.8881 C.1     1  UNL1       -0.0583
     18 C          66.1289   92.4825   12.6238 C.1     1  UNL1       -0.0405
     19 C          66.8773   92.7845   11.3594 C.ar    1  UNL1        0.1224
     20 C          67.7374   91.7309   10.7270 C.ar    1  UNL1        0.0276
     21 C          68.4858   92.0329    9.4626 C.ar    1  UNL1        0.0034
     22 C          68.3742   93.3886    8.8306 C.ar    1  UNL1        0.0148
     23 C          67.5140   94.4424    9.4630 C.ar    1  UNL1        0.0600
     24 C          67.4023   95.7981    8.8310 C.3     1  UNL1        0.0521
     25 N          66.7656   94.1403   10.7274 N.ar    1  UNL1       -0.2414
@<TRIPOS>BOND
     1    10    11    1
     2    11    12   ar
     3    12    13   ar
     4    13    14   ar
     5    14    15   ar
     6    15     1    1
     7     1     2    2
     8     1     3   am
     9     3     4    1
    10     4     5    1
    11     5     6    1
    12     6     7    2
    13     7    17    1
    14    17    18    3
    15    18    19    1
    16    19    20   ar
    17    20    21   ar
    18    21    22   ar
    19    22    23   ar
    20    23    24    1
    21    23    25   ar
    22     6     8    1
    23     8     9    1
    24    15    16   ar
    25    16    11   ar
    26     9     3    1
    27    25    19   ar
@<TRIPOS>MOLECULE
*****
 25 27 0 0 0
SMALL
GASTEIGER

@<TRIPOS>ATOM
      1 C          63.0181   85.4390   15.6084 C.2     1  UNL1        0.2490
      2 O          62.3181   84.9085   16.8243 O.2     1  UNL1       -0.2699
      3 N          63.3923   86.8895   15.5315 N.am    1  UNL1       -0.2754
      4 C          64.0923   87.4201   14.3155 C.3     1  UNL1        0.0981
      5 C          64.4666   88.8706   14.2386 C.3     1  UNL1        0.0442
      6 C          64.1408   89.7906   15.3777 C.2     1  UNL1       -0.0326
      7 C          64.5151   91.2411   15.3008 C.2     1  UNL1        0.0412
      8 C          63.4409   89.2601   16.5937 C.3     1  UNL1        0.0442
      9 C          63.0666   87.8096   16.6706 C.3     1  UNL1        0.0981
     10 C          62.9875   84.3929   10.5187 C.3     1  UNL1        0.0310
     11 C          63.3285   83.9960   11.9244 C.ar    1  UNL1       -0.0217
     12 C          63.9952   82.6790   12.1911 C.ar    1  UNL1       -0.0043
     13 C          64.3363   82.2821   13.5969 C.ar    1  UNL1       -0.0002
     14 C          64.0106   83.2021   14.7359 C.ar    1  UNL1        0.0045
     15 C          63.3438   84.5190   14.4693 C.ar    1  UNL1        0.0533
     16 C          63.0028   84.9159   13.0635 C.ar    1  UNL1        0.0003
     17 C          65.2150   91.7716   14.0848 C.1     1  UNL1       -0.0583
     18 C          65.9150   92.3022   12.8689 C.1     1  UNL1       -0.0405
     19 C          66.6150   92.8327   11.6529 C.ar    1  UNL1        0.1224
     20 C          67.5790   91.9621   10.9028 C.ar    1  UNL1        0.0276
     21 C          68.2790   92.4926    9.6868 C.ar    1  UNL1        0.0034
     22 C          68.0150   93.8938    9.2210 C.ar    1  UNL1        0.0148
     23 C          67.0509   94.7644    9.9711 C.ar    1  UNL1        0.0600
     24 C          66.7869   96.1656    9.5052 C.3     1  UNL1        0.0521
     25 N          66.3509   94.2339   11.1871 N.ar    1  UNL1       -0.2414
@<TRIPOS>BOND
     1    10    11    1
     2    11    12   ar
     3    12    13   ar
     4    13    14   ar
     5    14    15   ar
     6    15     1    1
     7     1     2    2
     8     1     3   am
     9     3     4    1
    10     4     5    1
    11     5     6    1
    12     6     7    2
    13     7    17    1
    14    17    18    3
    15    18    19    1
    16    19    20   ar
    17    20    21   ar
    18    21    22   ar
    19    22    23   ar
    20    23    24    1
    21    23    25   ar
    22     6     8    1
    23     8     9    1
    24    15    16   ar
    25    16    11   ar
    26     9     3    1
    27    25    19   ar
@<TRIPOS>MOLECULE
*****
 25 27 0 0 0
SMALL
GASTEIGER

@<TRIPOS>ATOM
      1 C          66.4520   94.0048   12.9810 C.2     1  UNL1        0.2490
      2 O          67.1617   94.5607   14.1798 O.2     1  UNL1       -0.2699
      3 N          65.7213   92.6986   13.0808 N.am    1  UNL1       -0.2754
      4 C          65.0116   92.1426   11.8820 C.3     1  UNL1        0.0981
      5 C          64.2810   90.8364   11.9819 C.3     1  UNL1        0.0442
      6 C          64.2600   90.0862   13.2806 C.2     1  UNL1       -0.0326
      7 C          63.5294   88.7800   13.3804 C.2     1  UNL1        0.0412
      8 C          64.9698   90.6421   14.4794 C.3     1  UNL1        0.0442
      9 C          65.7004   91.9483   14.3796 C.3     1  UNL1        0.0981
     10 C          67.8346   94.3086    7.9813 C.3     1  UNL1        0.0310
     11 C          67.1643   94.9069    9.1824 C.ar    1  UNL1       -0.0217
     12 C          66.5149   96.2555    9.0848 C.ar    1  UNL1       -0.0043
     13 C          65.8445   96.8539   10.2859 C.ar    1  UNL1       -0.0002
     14 C          65.8236   96.1037   11.5846 C.ar    1  UNL1        0.0045
     15 C          66.4729   94.7551   11.6822 C.ar    1  UNL1        0.0533
     16 C          67.1433   94.1567   10.4811 C.ar    1  UNL1        0.0003
     17 C          62.8197   88.2240   12.1816 C.1     1  UNL1       -0.0583
     18 C          62.1100   87.6681   10.9828 C.1     1  UNL1       -0.0405
     19 C          61.4002   87.1121    9.7839 C.ar    1  UNL1        0.1224
     20 C          59.9613   87.4566    9.5376 C.ar    1  UNL1        0.0276
     21 C          59.2516   86.9007    8.3388 C.ar    1  UNL1        0.0034
     22 C          59.9808   86.0003    7.3862 C.ar    1  UNL1        0.0148
     23 C          61.4198   85.6557    7.6325 C.ar    1  UNL1        0.0600
     24 C          62.1490   84.7553    6.6800 C.3     1  UNL1        0.0521
     25 N          62.1295   86.2117    8.8313 N.ar    1  UNL1       -0.2414
@<TRIPOS>BOND
     1    10    11    1
     2    11    12   ar
     3    12    13   ar
     4    13    14   ar
     5    14    15   ar
     6    15     1    1
     7     1     2    2
     8     1     3   am
     9     3     4    1
    10     4     5    1
    11     5     6    1
    12     6     7    2
    13     7    17    1
    14    17    18    3
    15    18    19    1
    16    19    20   ar
    17    20    21   ar
    18    21    22   ar
    19    22    23   ar
    20    23    24    1
    21    23    25   ar
    22     6     8    1
    23     8     9    1
    24    15    16   ar
    25    16    11   ar
    26     9     3    1
    27    25    19   ar
@<TRIPOS>MOLECULE
*****
 25 27 0 0 0
SMALL
GASTEIGER

@<TRIPOS>ATOM
      1 C          64.4224   91.3660   15.3055 C.2     1  UNL1        0.2490
      2 O          64.3920   92.4800   16.3095 O.2     1  UNL1       -0.2699
      3 N          63.9766   89.9890   15.6994 N.am    1  UNL1       -0.2754
      4 C          64.0069   88.8750   14.6953 C.3     1  UNL1        0.0981
      5 C          63.5611   87.4980   15.0893 C.3     1  UNL1        0.0442
      6 C          63.0849   87.2350   16.4871 C.2     1  UNL1       -0.0326
      7 C          62.6391   85.8581   16.8810 C.2     1  UNL1        0.0412
      8 C          63.0546   88.3490   17.4912 C.3     1  UNL1        0.0442
      9 C          63.5004   89.7260   17.0973 C.3     1  UNL1        0.0981
     10 C          63.5035   91.5245   10.1937 C.3     1  UNL1        0.0310
     11 C          64.4391   91.7082   11.3517 C.ar    1  UNL1       -0.0217
     12 C          65.8507   92.1550   11.1118 C.ar    1  UNL1       -0.0043
     13 C          66.7863   92.3387   12.2698 C.ar    1  UNL1       -0.0002
     14 C          66.3102   92.0758   13.6677 C.ar    1  UNL1        0.0045
     15 C          64.8985   91.6290   13.9076 C.ar    1  UNL1        0.0533
     16 C          63.9630   91.4452   12.7495 C.ar    1  UNL1        0.0003
     17 C          62.6695   84.7440   15.8770 C.1     1  UNL1       -0.0583
     18 C          62.6998   83.6300   14.8730 C.1     1  UNL1       -0.0405
     19 C          62.7302   82.5160   13.8690 C.ar    1  UNL1        0.1224
     20 C          62.1860   81.1657   14.2302 C.ar    1  UNL1        0.0276
     21 C          62.2163   80.0517   13.2262 C.ar    1  UNL1        0.0034
     22 C          62.7909   80.2880   11.8609 C.ar    1  UNL1        0.0148
     23 C          63.3351   81.6383   11.4996 C.ar    1  UNL1        0.0600
     24 C          63.9096   81.8746   10.1343 C.3     1  UNL1        0.0521
     25 N          63.3048   82.7523   12.5036 N.ar    1  UNL1       -0.2414
@<TRIPOS>BOND
     1    10    11    1
     2    11    12   ar
     3    12    13   ar
     4    13    14   ar
     5    14    15   ar
     6    15     1    1
     7     1     2    2
     8     1     3   am
     9     3     4    1
    10     4     5    1
    11     5     6    1
    12     6     7    2
    13     7    17    1
    14    17    18    3
    15    18    19    1
    16    19    20   ar
    17    20    21   ar
    18    21    22   ar
    19    22    23   ar
    20    23    24    1
    21    23    25   ar
    22     6     8    1
    23     8     9    1
    24    15    16   ar
    25    16    11   ar
    26     9     3    1
    27    25    19   ar
@<TRIPOS>MOLECULE
*****
 25 27 0 0 0
SMALL
GASTEIGER

@<TRIPOS>ATOM
      1 C          62.6529   83.0879   14.1746 C.2     1  UNL1        0.2490
      2 O          62.0406   81.9722   14.9685 O.2     1  UNL1       -0.2699
      3 N          62.8442   84.4371   14.8014 N.am    1  UNL1       -0.2754
      4 C          63.4565   85.5529   14.0075 C.3     1  UNL1        0.0981
      5 C          63.6478   86.9022   14.6343 C.3     1  UNL1        0.0442
      6 C          63.2268   87.1357   16.0550 C.2     1  UNL1       -0.0326
      7 C          63.4181   88.4850   16.6817 C.2     1  UNL1        0.0412
      8 C          62.6145   86.0200   16.8488 C.3     1  UNL1        0.0442
      9 C          62.4232   84.6707   16.2221 C.3     1  UNL1        0.0981
     10 C          63.2658   84.8315    9.3182 C.3     1  UNL1        0.0310
     11 C          63.3803   83.7262   10.3258 C.ar    1  UNL1       -0.0217
     12 C          63.9158   82.3873    9.9127 C.ar    1  UNL1       -0.0043
     13 C          64.0303   81.2820   10.9202 C.ar    1  UNL1       -0.0002
     14 C          63.6093   81.5155   12.3408 C.ar    1  UNL1        0.0045
     15 C          63.0738   82.8543   12.7539 C.ar    1  UNL1        0.0533
     16 C          62.9593   83.9597   11.7464 C.ar    1  UNL1        0.0003
     17 C          64.0304   89.6007   15.8879 C.1     1  UNL1       -0.0583
     18 C          64.6427   90.7164   15.0940 C.1     1  UNL1       -0.0405
     19 C          65.2550   91.8322   14.3002 C.ar    1  UNL1        0.1224
     20 C          66.1501   92.8291   14.9746 C.ar    1  UNL1        0.0276
     21 C          66.7624   93.9448   14.1807 C.ar    1  UNL1        0.0034
     22 C          66.4797   94.0637   12.7124 C.ar    1  UNL1        0.0148
     23 C          65.5845   93.0667   12.0379 C.ar    1  UNL1        0.0600
     24 C          65.3017   93.1855   10.5697 C.3     1  UNL1        0.0521
     25 N          64.9722   91.9509   12.8318 N.ar    1  UNL1       -0.2414
@<TRIPOS>BOND
     1    10    11    1
     2    11    12   ar
     3    12    13   ar
     4    13    14   ar
     5    14    15   ar
     6    15     1    1
     7     1     2    2
     8     1     3   am
     9     3     4    1
    10     4     5    1
    11     5     6    1
    12     6     7    2
    13     7    17    1
    14    17    18    3
    15    18    19    1
    16    19    20   ar
    17    20    21   ar
    18    21    22   ar
    19    22    23   ar
    20    23    24    1
    21    23    25   ar
    22     6     8    1
    23     8     9    1
    24    15    16   ar
    25    16    11   ar
    26     9     3    1
    27    25    19   ar
@<TRIPOS>MOLECULE
*****
 25 27 0 0 0
SMALL
GASTEIGER

@<TRIPOS>ATOM
      1 C          66.1058   92.9607   13.8549 C.2     1  UNL1        0.2490
      2 O          66.1026   94.2985   14.5335 O.2     1  UNL1       -0.2699
      3 N          65.4026   91.7969   14.4881 N.am    1  UNL1       -0.2754
      4 C          65.4058   90.4592   13.8095 C.3     1  UNL1        0.0981
      5 C          64.7026   89.2953   14.4427 C.3     1  UNL1        0.0442
      6 C          63.9961   89.4692   15.7544 C.2     1  UNL1       -0.0326
      7 C          63.2928   88.3053   16.3875 C.2     1  UNL1        0.0412
      8 C          63.9928   90.8069   16.4329 C.3     1  UNL1        0.0442
      9 C          64.6960   91.9707   15.7998 C.3     1  UNL1        0.0981
     10 C          66.7948   94.3512    8.8959 C.3     1  UNL1        0.0310
     11 C          67.1568   93.4821   10.0637 C.ar    1  UNL1       -0.0217
     12 C          68.2253   92.4393    9.9197 C.ar    1  UNL1       -0.0043
     13 C          68.5873   91.5702   11.0875 C.ar    1  UNL1       -0.0002
     14 C          67.8809   91.7440   12.3992 C.ar    1  UNL1        0.0045
     15 C          66.8124   92.7869   12.5432 C.ar    1  UNL1        0.0533
     16 C          66.4503   93.6559   11.3754 C.ar    1  UNL1        0.0003
     17 C          63.2961   86.9676   15.7089 C.1     1  UNL1       -0.0583
     18 C          63.2993   85.6299   15.0303 C.1     1  UNL1       -0.0405
     19 C          63.3026   84.2921   14.3517 C.ar    1  UNL1        0.1224
     20 C          64.4216   83.9251   13.4227 C.ar    1  UNL1        0.0276
     21 C          64.4248   82.5874   12.7441 C.ar    1  UNL1        0.0034
     22 C          63.3091   81.6167   12.9946 C.ar    1  UNL1        0.0148
     23 C          62.1901   81.9836   13.9237 C.ar    1  UNL1        0.0600
     24 C          61.0743   81.0129   14.1741 C.3     1  UNL1        0.0521
     25 N          62.1868   83.3214   14.6022 N.ar    1  UNL1       -0.2414
@<TRIPOS>BOND
     1    10    11    1
     2    11    12   ar
     3    12    13   ar
     4    13    14   ar
     5    14    15   ar
     6    15     1    1
     7     1     2    2
     8     1     3   am
     9     3     4    1
    10     4     5    1
    11     5     6    1
    12     6     7    2
    13     7    17    1
    14    17    18    3
    15    18    19    1
    16    19    20   ar
    17    20    21   ar
    18    21    22   ar
    19    22    23   ar
    20    23    24    1
    21    23    25   ar
    22     6     8    1
    23     8     9    1
    24    15    16   ar
    25    16    11   ar
    26     9     3    1
    27    25    19   ar
@<TRIPOS>MOLECULE
*****
 25 27 0 0 0
SMALL
GASTEIGER

@<TRIPOS>ATOM
      1 C          62.4459   85.9950   12.2431 C.2     1  UNL1        0.2490
      2 O          62.1243   84.8394   13.1437 O.2     1  UNL1       -0.2699
      3 N          63.1422   87.2040   12.7940 N.am    1  UNL1       -0.2754
      4 C          63.4637   88.3597   11.8934 C.3     1  UNL1        0.0981
      5 C          64.1600   89.5687   12.4443 C.3     1  UNL1        0.0442
      6 C          64.5348   89.6221   13.8958 C.2     1  UNL1       -0.0326
      7 C          65.2310   90.8311   14.4466 C.2     1  UNL1        0.0412
      8 C          64.2132   88.4664   14.7963 C.3     1  UNL1        0.0442
      9 C          63.5169   87.2574   14.2455 C.3     1  UNL1        0.0981
     10 C          59.1734   87.2068    8.3931 C.3     1  UNL1        0.0310
     11 C          60.4348   86.5476    8.8667 C.ar    1  UNL1       -0.0217
     12 C          61.3214   85.8350    7.8888 C.ar    1  UNL1       -0.0043
     13 C          62.5828   85.1758    8.3624 C.ar    1  UNL1       -0.0002
     14 C          62.9577   85.2291    9.8138 C.ar    1  UNL1        0.0045
     15 C          62.0711   85.9417   10.7916 C.ar    1  UNL1        0.0533
     16 C          60.8097   86.6009   10.3181 C.ar    1  UNL1        0.0003
     17 C          65.5526   91.9867   13.5460 C.1     1  UNL1       -0.0583
     18 C          65.8741   93.1424   12.6455 C.1     1  UNL1       -0.0405
     19 C          66.1956   94.2981   11.7449 C.ar    1  UNL1        0.1224
     20 C          66.1376   95.7003   12.2744 C.ar    1  UNL1        0.0276
     21 C          66.4591   96.8560   11.3738 C.ar    1  UNL1        0.0034
     22 C          66.8386   96.6094    9.9437 C.ar    1  UNL1        0.0148
     23 C          66.8967   95.2072    9.4142 C.ar    1  UNL1        0.0600
     24 C          67.2762   94.9607    7.9841 C.3     1  UNL1        0.0521
     25 N          66.5751   94.0515   10.3147 N.ar    1  UNL1       -0.2414
@<TRIPOS>BOND
     1    10    11    1
     2    11    12   ar
     3    12    13   ar
     4    13    14   ar
     5    14    15   ar
     6    15     1    1
     7     1     2    2
     8     1     3   am
     9     3     4    1
    10     4     5    1
    11     5     6    1
    12     6     7    2
    13     7    17    1
    14    17    18    3
    15    18    19    1
    16    19    20   ar
    17    20    21   ar
    18    21    22   ar
    19    22    23   ar
    20    23    24    1
    21    23    25   ar
    22     6     8    1
    23     8     9    1
    24    15    16   ar
    25    16    11   ar
    26     9     3    1
    27    25    19   ar
@<TRIPOS>MOLECULE
*****
 25 27 0 0 0
SMALL
GASTEIGER

@<TRIPOS>ATOM
      1 C          65.4167   92.8596   12.5447 C.2     1  UNL1        0.2490
      2 O          65.3722   94.1627   11.8032 O.2     1  UNL1       -0.2699
      3 N          64.6180   91.6891   12.0528 N.am    1  UNL1       -0.2754
      4 C          64.6625   90.3860   12.7943 C.3     1  UNL1        0.0981
      5 C          63.8638   89.2154   12.3023 C.3     1  UNL1        0.0442
      6 C          63.0205   89.3481   11.0690 C.2     1  UNL1       -0.0326
      7 C          62.2218   88.1777   10.5771 C.2     1  UNL1        0.0412
      8 C          62.9760   90.6513   10.3275 C.3     1  UNL1        0.0442
      9 C          63.7747   91.8218   10.8194 C.3     1  UNL1        0.0981
     10 C          70.0875   92.3984   14.7743 C.3     1  UNL1        0.0310
     11 C          68.5954   92.4963   14.8929 C.ar    1  UNL1       -0.0217
     12 C          67.9466   92.4617   16.2448 C.ar    1  UNL1       -0.0043
     13 C          66.4545   92.5596   16.3634 C.ar    1  UNL1       -0.0002
     14 C          65.6112   92.6923   15.1301 C.ar    1  UNL1        0.0045
     15 C          66.2600   92.7269   13.7781 C.ar    1  UNL1        0.0533
     16 C          67.7521   92.6290   13.6595 C.ar    1  UNL1        0.0003
     17 C          62.2663   86.8745   11.3185 C.1     1  UNL1       -0.0583
     18 C          62.3109   85.5713   12.0600 C.1     1  UNL1       -0.0405
     19 C          62.3554   84.2682   12.8015 C.ar    1  UNL1        0.1224
     20 C          62.2541   84.2529   14.2980 C.ar    1  UNL1        0.0276
     21 C          62.2987   82.9498   15.0395 C.ar    1  UNL1        0.0034
     22 C          62.4445   81.6619   14.2845 C.ar    1  UNL1        0.0148
     23 C          62.5457   81.6771   12.7879 C.ar    1  UNL1        0.0600
     24 C          62.6915   80.3892   12.0330 C.3     1  UNL1        0.0521
     25 N          62.5012   82.9803   12.0464 N.ar    1  UNL1       -0.2414
@<TRIPOS>BOND
     1    10    11    1
     2    11    12   ar
     3    12    13   ar
     4    13    14   ar
     5    14    15   ar
     6    15     1    1
     7     1     2    2
     8     1     3   am
     9     3     4    1
    10     4     5    1
    11     5     6    1
    12     6     7    2
    13     7    17    1
    14    17    18    3
    15    18    19    1
    16    19    20   ar
    17    20    21   ar
    18    21    22   ar
    19    22    23   ar
    20    23    24    1
    21    23    25   ar
    22     6     8    1
    23     8     9    1
    24    15    16   ar
    25    16    11   ar
    26     9     3    1
    27    25    19   ar
@<TRIPOS>MOLECULE
*****
 25 27 0 0 0
SMALL
GASTEIGER

@<TRIPOS>ATOM
      1 C          60.3524   93.1579    2.7194 C.2     1  UNL1        0.2490
      2 O          59.3893   94.1339    2.1113 O.2     1  UNL1       -0.2699
      3 N          59.8842   92.2012    3.7755 N.am    1  UNL1       -0.2754
      4 C          60.8474   91.2252    4.3836 C.3     1  UNL1        0.0981
      5 C          60.3791   90.2684    5.4398 C.3     1  UNL1        0.0442
      6 C          58.9477   90.2877    5.8877 C.2     1  UNL1       -0.0326
      7 C          58.4794   89.3309    6.9438 C.2     1  UNL1        0.0412
      8 C          57.9845   91.2636    5.2796 C.3     1  UNL1        0.0442
      9 C          58.4528   92.2204    4.2235 C.3     1  UNL1        0.0981
     10 C          64.3219   95.4138    0.2386 C.3     1  UNL1        0.0310
     11 C          63.7686   94.2667    1.0310 C.ar    1  UNL1       -0.0217
     12 C          64.6466   93.1004    1.3753 C.ar    1  UNL1       -0.0043
     13 C          64.0933   91.9532    2.1677 C.ar    1  UNL1       -0.0002
     14 C          62.6620   91.9724    2.6157 C.ar    1  UNL1        0.0045
     15 C          61.7839   93.1387    2.2714 C.ar    1  UNL1        0.0533
     16 C          62.3372   94.2858    1.4790 C.ar    1  UNL1        0.0003
     17 C          59.4426   88.3550    7.5520 C.1     1  UNL1       -0.0583
     18 C          60.4058   87.3790    8.1601 C.1     1  UNL1       -0.0405
     19 C          61.3689   86.4030    8.7682 C.ar    1  UNL1        0.1224
     20 C          62.2797   85.6003    7.8873 C.ar    1  UNL1        0.0276
     21 C          63.2429   84.6243    8.4955 C.ar    1  UNL1        0.0034
     22 C          63.2952   84.4511    9.9845 C.ar    1  UNL1        0.0148
     23 C          62.3843   85.2538   10.8654 C.ar    1  UNL1        0.0600
     24 C          62.4367   85.0806   12.3544 C.3     1  UNL1        0.0521
     25 N          61.4212   86.2298   10.2573 N.ar    1  UNL1       -0.2414
@<TRIPOS>BOND
     1    10    11    1
     2    11    12   ar
     3    12    13   ar
     4    13    14   ar
     5    14    15   ar
     6    15     1    1
     7     1     2    2
     8     1     3   am
     9     3     4    1
    10     4     5    1
    11     5     6    1
    12     6     7    2
    13     7    17    1
    14    17    18    3
    15    18    19    1
    16    19    20   ar
    17    20    21   ar
    18    21    22   ar
    19    22    23   ar
    20    23    24    1
    21    23    25   ar
    22     6     8    1
    23     8     9    1
    24    15    16   ar
    25    16    11   ar
    26     9     3    1
    27    25    19   ar
