@<TRIPOS>MOLECULE
*****
 29 32 0 0 0
SMALL
GASTEIGER

@<TRIPOS>ATOM
      1 C          61.2173   88.8435   10.2584 C.ar    1  UNL1        0.1389
      2 C          62.1170   89.8841   10.8564 C.ar    1  UNL1        0.0553
      3 C          63.1531   89.4889   11.8665 C.ar    1  UNL1        0.1048
      4 N          63.2895   88.0531   12.2786 N.ar    1  UNL1       -0.2083
      5 C          62.3898   87.0125   11.6806 C.ar    1  UNL1        0.2539
      6 N          61.3537   87.4077   10.6706 N.ar    1  UNL1       -0.1948
      7 N          62.5262   85.5766   12.0927 N.ar    1  UNL1       -0.2008
      8 N          62.3223   85.0332   13.4759 N.ar    1  UNL1       -0.1673
      9 C          62.5605   83.5529   13.4321 C.ar    1  UNL1        0.0806
     10 C          62.4644   82.6096   14.5944 C.3     1  UNL1        0.0540
     11 C          62.9116   83.1815   12.0218 C.ar    1  UNL1        0.0313
     12 C          62.8904   84.4322   11.1941 C.ar    1  UNL1        0.0651
     13 C          63.1822   84.5226    9.7255 C.3     1  UNL1        0.0523
     14 C          64.0528   90.5296   12.4645 C.ar    1  UNL1        0.1005
     15 C          64.3722   90.4926   13.9296 C.ar    1  UNL1        0.0208
     16 C          65.2719   91.5332   14.5276 C.ar    1  UNL1        0.0045
     17 C          65.8523   92.6109   13.6605 C.ar    1  UNL1        0.0343
     18 C          65.5329   92.6479   12.1954 C.ar    1  UNL1        0.1317
     19 N          64.6331   91.6072   11.5974 N.ar    1  UNL1       -0.2292
     20 N          66.1132   93.7255   11.3282 N.pl3   1  UNL1       -0.2932
     21 C          66.0975   95.1966   11.6207 C.3     1  UNL1        0.0922
     22 C          66.7857   95.9015   10.4896 C.3     1  UNL1        0.0232
     23 C          67.2267   94.8660    9.4980 C.3     1  UNL1        0.0232
     24 C          66.8111   93.5212   10.0163 C.3     1  UNL1        0.0922
     25 C          58.8457   88.7311    7.0783 C.3     1  UNL1        0.0950
     26 C          59.8819   88.3359    8.0884 C.2     1  UNL1        0.2277
     27 O          60.6187   87.0380    7.9385 O.2     1  UNL1       -0.2747
     28 N          60.1811   89.2387    9.2484 N.am    1  UNL1       -0.2692
     29 H          59.6975   90.0905    9.3467 H       1  UNL1        0.1563
@<TRIPOS>BOND
     1    25    26    1
     2    26    27    2
     3    26    28   am
     4    28     1    1
     5     1     2   ar
     6     2     3   ar
     7     3    14    1
     8    14    15   ar
     9    15    16   ar
    10    16    17   ar
    11    17    18   ar
    12    18    20    1
    13    20    21    1
    14    21    22    1
    15    22    23    1
    16    23    24    1
    17    18    19   ar
    18     3     4   ar
    19     4     5   ar
    20     5     7    1
    21     7     8   ar
    22     8     9   ar
    23     9    10    1
    24     9    11   ar
    25    11    12   ar
    26    12    13    1
    27     5     6   ar
    28     6     1   ar
    29    19    14   ar
    30    12     7   ar
    31    24    20    1
    32    28    29    1
@<TRIPOS>MOLECULE
*****
 29 32 0 0 0
SMALL
GASTEIGER

@<TRIPOS>ATOM
      1 C          61.4052   88.1297   10.9840 C.ar    1  UNL1        0.1389
      2 C          62.2275   89.2759   11.4939 C.ar    1  UNL1        0.0553
      3 C          63.3244   89.0288   12.4867 C.ar    1  UNL1        0.1048
      4 N          63.5990   87.6355   12.9697 N.ar    1  UNL1       -0.2083
      5 C          62.7766   86.4893   12.4598 C.ar    1  UNL1        0.2539
      6 N          61.6798   86.7364   11.4669 N.ar    1  UNL1       -0.1948
      7 N          63.0512   85.0959   12.9428 N.ar    1  UNL1       -0.2008
      8 N          62.6942   83.8278   12.2255 N.ar    1  UNL1       -0.1673
      9 C          63.1533   82.6742   13.0672 C.ar    1  UNL1        0.0806
     10 C          62.9988   81.2207   12.7305 C.3     1  UNL1        0.0540
     11 C          63.7940   83.2294   14.3047 C.ar    1  UNL1        0.0313
     12 C          63.7309   84.7261   14.2278 C.ar    1  UNL1        0.0651
     13 C          64.2554   85.6846   15.2555 C.3     1  UNL1        0.0523
     14 C          64.1467   90.1751   12.9966 C.ar    1  UNL1        0.1005
     15 C          64.4460   90.2900   14.4619 C.ar    1  UNL1        0.0208
     16 C          65.2683   91.4362   14.9718 C.ar    1  UNL1        0.0045
     17 C          65.7914   92.4675   14.0164 C.ar    1  UNL1        0.0343
     18 C          65.4921   92.3526   12.5510 C.ar    1  UNL1        0.1317
     19 N          64.6698   91.2063   12.0412 N.ar    1  UNL1       -0.2292
     20 N          66.0151   93.3838   11.5956 N.pl3   1  UNL1       -0.2932
     21 C          66.4697   93.1321   10.1885 C.3     1  UNL1        0.0922
     22 C          66.9109   94.4406    9.6027 C.3     1  UNL1        0.0232
     23 C          66.7290   95.5011   10.6479 C.3     1  UNL1        0.0232
     24 C          66.1754   94.8480   11.8795 C.3     1  UNL1        0.0922
     25 C          59.1910   87.8720    7.7005 C.3     1  UNL1        0.0950
     26 C          60.2879   87.6249    8.6934 C.2     1  UNL1        0.2277
     27 O          61.3645   86.6258    8.3885 O.2     1  UNL1       -0.2747
     28 N          60.3083   88.3768    9.9911 N.am    1  UNL1       -0.2692
     29 H          59.6017   89.0326   10.1912 H       1  UNL1        0.1563
@<TRIPOS>BOND
     1    25    26    1
     2    26    27    2
     3    26    28   am
     4    28     1    1
     5     1     2   ar
     6     2     3   ar
     7     3    14    1
     8    14    15   ar
     9    15    16   ar
    10    16    17   ar
    11    17    18   ar
    12    18    20    1
    13    20    21    1
    14    21    22    1
    15    22    23    1
    16    23    24    1
    17    18    19   ar
    18     3     4   ar
    19     4     5   ar
    20     5     7    1
    21     7     8   ar
    22     8     9   ar
    23     9    10    1
    24     9    11   ar
    25    11    12   ar
    26    12    13    1
    27     5     6   ar
    28     6     1   ar
    29    19    14   ar
    30    12     7   ar
    31    24    20    1
    32    28    29    1
@<TRIPOS>MOLECULE
*****
 29 32 0 0 0
SMALL
GASTEIGER

@<TRIPOS>ATOM
      1 C          65.5772   91.8765   13.4416 C.ar    1  UNL1        0.1389
      2 C          64.3558   91.0867   13.0750 C.ar    1  UNL1        0.0553
      3 C          63.8060   91.1595   11.6813 C.ar    1  UNL1        0.1048
      4 N          64.4776   92.0220   10.6542 N.ar    1  UNL1       -0.2083
      5 C          65.6990   92.8117   11.0208 C.ar    1  UNL1        0.2539
      6 N          66.2488   92.7390   12.4145 N.ar    1  UNL1       -0.1948
      7 N          66.3706   93.6743    9.9936 N.ar    1  UNL1       -0.2008
      8 N          65.9269   95.0412    9.5638 N.ar    1  UNL1       -0.1673
      9 C          66.8859   95.5331    8.5205 C.ar    1  UNL1        0.0806
     10 C          66.8200   96.8557    7.8159 C.3     1  UNL1        0.0540
     11 C          67.9223   94.4702    8.3056 C.ar    1  UNL1        0.0313
     12 C          67.6038   93.3214    9.2160 C.ar    1  UNL1        0.0651
     13 C          68.3820   92.0441    9.3290 C.3     1  UNL1        0.0523
     14 C          62.5845   90.3697   11.3148 C.ar    1  UNL1        0.1005
     15 C          61.2441   90.7657   11.8592 C.ar    1  UNL1        0.0208
     16 C          60.0227   89.9759   11.4928 C.ar    1  UNL1        0.0045
     17 C          60.1416   88.7902   10.5817 C.ar    1  UNL1        0.0343
     18 C          61.4820   88.3942   10.0372 C.ar    1  UNL1        0.1317
     19 N          62.7035   89.1840   10.4038 N.ar    1  UNL1       -0.2292
     20 N          61.6010   87.2085    9.1263 N.pl3   1  UNL1       -0.2932
     21 C          60.5664   86.7432    8.1449 C.3     1  UNL1        0.0922
     22 C          61.1014   85.5271    7.4488 C.3     1  UNL1        0.0232
     23 C          62.4669   85.2407    7.9999 C.3     1  UNL1        0.0232
     24 C          62.7756   86.2799    9.0367 C.3     1  UNL1        0.0922
     25 C          68.1323   91.9969   16.4759 C.3     1  UNL1        0.0950
     26 C          67.5825   92.0697   15.0822 C.2     1  UNL1        0.2277
     27 O          68.4882   92.4084   13.9354 O.2     1  UNL1       -0.2747
     28 N          66.1271   91.8037   14.8353 N.am    1  UNL1       -0.2692
     29 H          65.5327   91.5814   15.5879 H       1  UNL1        0.1563
@<TRIPOS>BOND
     1    25    26    1
     2    26    27    2
     3    26    28   am
     4    28     1    1
     5     1     2   ar
     6     2     3   ar
     7     3    14    1
     8    14    15   ar
     9    15    16   ar
    10    16    17   ar
    11    17    18   ar
    12    18    20    1
    13    20    21    1
    14    21    22    1
    15    22    23    1
    16    23    24    1
    17    18    19   ar
    18     3     4   ar
    19     4     5   ar
    20     5     7    1
    21     7     8   ar
    22     8     9   ar
    23     9    10    1
    24     9    11   ar
    25    11    12   ar
    26    12    13    1
    27     5     6   ar
    28     6     1   ar
    29    19    14   ar
    30    12     7   ar
    31    24    20    1
    32    28    29    1
@<TRIPOS>MOLECULE
*****
 29 32 0 0 0
SMALL
GASTEIGER

@<TRIPOS>ATOM
      1 C          61.9793   89.9002   10.6354 C.ar    1  UNL1        0.1389
      2 C          62.2248   88.7004   11.5015 C.ar    1  UNL1        0.0553
      3 C          63.3558   88.7054   12.4867 C.ar    1  UNL1        0.1048
      4 N          64.2413   89.9102   12.6060 N.ar    1  UNL1       -0.2083
      5 C          63.9958   91.1100   11.7400 C.ar    1  UNL1        0.2539
      6 N          62.8648   91.1051   10.7547 N.ar    1  UNL1       -0.1948
      7 N          64.8813   92.3149   11.8592 N.ar    1  UNL1       -0.2008
      8 N          65.1290   93.3364   10.7891 N.ar    1  UNL1       -0.1673
      9 C          66.0753   94.3627   11.3379 C.ar    1  UNL1        0.0806
     10 C          66.5935   95.5650   10.6060 C.3     1  UNL1        0.0540
     11 C          66.4125   93.9754   12.7474 C.ar    1  UNL1        0.0313
     12 C          65.6745   92.7099   13.0695 C.ar    1  UNL1        0.0651
     13 C          65.7216   91.9693   14.3731 C.3     1  UNL1        0.0523
     14 C          63.6013   87.5054   13.3528 C.ar    1  UNL1        0.1005
     15 C          64.2885   87.6640   14.6767 C.ar    1  UNL1        0.0208
     16 C          64.5340   86.4641   15.5427 C.ar    1  UNL1        0.0045
     17 C          64.0924   85.1056   15.0848 C.ar    1  UNL1        0.0343
     18 C          63.4052   84.9471   13.7609 C.ar    1  UNL1        0.1317
     19 N          63.1597   86.1470   12.8949 N.ar    1  UNL1       -0.2292
     20 N          62.9636   83.5887   13.3030 N.pl3   1  UNL1       -0.2932
     21 C          63.1130   83.0336   11.9176 C.3     1  UNL1        0.0922
     22 C          62.5368   81.6487   11.9085 C.3     1  UNL1        0.0232
     23 C          62.0313   81.3479   13.2884 C.3     1  UNL1        0.0232
     24 C          62.2952   82.5469   14.1503 C.3     1  UNL1        0.0922
     25 C          59.4341   88.6604    7.8544 C.3     1  UNL1        0.0950
     26 C          60.5651   88.6653    8.8397 C.2     1  UNL1        0.2277
     27 O          61.4129   87.4402    9.0144 O.2     1  UNL1       -0.2747
     28 N          60.8483   89.8953    9.6502 N.am    1  UNL1       -0.2692
     29 H          60.2918   90.6993    9.5355 H       1  UNL1        0.1563
@<TRIPOS>BOND
     1    25    26    1
     2    26    27    2
     3    26    28   am
     4    28     1    1
     5     1     2   ar
     6     2     3   ar
     7     3    14    1
     8    14    15   ar
     9    15    16   ar
    10    16    17   ar
    11    17    18   ar
    12    18    20    1
    13    20    21    1
    14    21    22    1
    15    22    23    1
    16    23    24    1
    17    18    19   ar
    18     3     4   ar
    19     4     5   ar
    20     5     7    1
    21     7     8   ar
    22     8     9   ar
    23     9    10    1
    24     9    11   ar
    25    11    12   ar
    26    12    13    1
    27     5     6   ar
    28     6     1   ar
    29    19    14   ar
    30    12     7   ar
    31    24    20    1
    32    28    29    1
@<TRIPOS>MOLECULE
*****
 29 32 0 0 0
SMALL
GASTEIGER

@<TRIPOS>ATOM
      1 C          60.9602   87.5062   10.7935 C.ar    1  UNL1        0.1389
      2 C          61.7223   88.7949   10.8842 C.ar    1  UNL1        0.0553
      3 C          62.9568   88.8781   11.7323 C.ar    1  UNL1        0.1048
      4 N          63.4290   87.6726   12.4897 N.ar    1  UNL1       -0.2083
      5 C          62.6668   86.3839   12.3990 C.ar    1  UNL1        0.2539
      6 N          61.4324   86.3007   11.5509 N.ar    1  UNL1       -0.1948
      7 N          63.1391   85.1783   13.1564 N.ar    1  UNL1       -0.2008
      8 N          62.8995   83.7476   12.7747 N.ar    1  UNL1       -0.1673
      9 C          63.5461   82.8768   13.8108 C.ar    1  UNL1        0.0806
     10 C          63.5524   81.3769   13.8227 C.3     1  UNL1        0.0540
     11 C          64.1853   83.7694   14.8330 C.ar    1  UNL1        0.0313
     12 C          63.9338   85.1918   14.4285 C.ar    1  UNL1        0.0651
     13 C          64.3958   86.4131   15.1666 C.3     1  UNL1        0.0523
     14 C          63.7190   90.1669   11.8229 C.ar    1  UNL1        0.1005
     15 C          63.5969   91.1888   10.7317 C.ar    1  UNL1        0.0208
     16 C          64.3590   92.4775   10.8223 C.ar    1  UNL1        0.0045
     17 C          65.2433   92.7444   12.0042 C.ar    1  UNL1        0.0343
     18 C          65.3654   91.7226   13.0955 C.ar    1  UNL1        0.1317
     19 N          64.6032   90.4338   13.0048 N.ar    1  UNL1       -0.2292
     20 N          66.2496   91.9894   14.2773 N.pl3   1  UNL1       -0.2932
     21 C          65.7942   92.4236   15.6390 C.3     1  UNL1        0.0922
     22 C          67.0077   92.5715   16.5083 C.3     1  UNL1        0.0232
     23 C          68.2130   92.2287   15.6839 C.3     1  UNL1        0.0232
     24 C          67.7445   91.8690   14.3051 C.3     1  UNL1        0.0922
     25 C          58.5650   86.7462    7.7218 C.3     1  UNL1        0.0950
     26 C          59.7994   86.8294    8.5699 C.2     1  UNL1        0.2277
     27 O          61.1076   86.3190    8.0424 O.2     1  UNL1       -0.2747
     28 N          59.7257   87.4230    9.9454 N.am    1  UNL1       -0.2692
     29 H          58.8671   87.7580   10.2916 H       1  UNL1        0.1563
@<TRIPOS>BOND
     1    25    26    1
     2    26    27    2
     3    26    28   am
     4    28     1    1
     5     1     2   ar
     6     2     3   ar
     7     3    14    1
     8    14    15   ar
     9    15    16   ar
    10    16    17   ar
    11    17    18   ar
    12    18    20    1
    13    20    21    1
    14    21    22    1
    15    22    23    1
    16    23    24    1
    17    18    19   ar
    18     3     4   ar
    19     4     5   ar
    20     5     7    1
    21     7     8   ar
    22     8     9   ar
    23     9    10    1
    24     9    11   ar
    25    11    12   ar
    26    12    13    1
    27     5     6   ar
    28     6     1   ar
    29    19    14   ar
    30    12     7   ar
    31    24    20    1
    32    28    29    1
@<TRIPOS>MOLECULE
*****
 29 32 0 0 0
SMALL
GASTEIGER

@<TRIPOS>ATOM
      1 C          63.8504   87.4168   13.9852 C.ar    1  UNL1        0.1389
      2 C          64.5627   88.7147   14.2262 C.ar    1  UNL1        0.0553
      3 C          64.3459   89.8729   13.2980 C.ar    1  UNL1        0.1048
      4 N          63.4168   89.7332   12.1287 N.ar    1  UNL1       -0.2083
      5 C          62.7045   88.4353   11.8878 C.ar    1  UNL1        0.2539
      6 N          62.9213   87.2772   12.8160 N.ar    1  UNL1       -0.1948
      7 N          61.7753   88.2956   10.7185 N.ar    1  UNL1       -0.2008
      8 N          61.6966   87.1197    9.7904 N.ar    1  UNL1       -0.1673
      9 C          60.6344   87.4045    8.7704 C.ar    1  UNL1        0.0806
     10 C          60.2223   86.4969    7.6495 C.3     1  UNL1        0.0540
     11 C          60.0565   88.7564    9.0680 C.ar    1  UNL1        0.0313
     12 C          60.7616   89.3071   10.2720 C.ar    1  UNL1        0.0651
     13 C          60.4992   90.6360   10.9163 C.3     1  UNL1        0.0523
     14 C          65.0583   91.1708   13.5390 C.ar    1  UNL1        0.1005
     15 C          65.4658   91.5555   14.9304 C.ar    1  UNL1        0.0208
     16 C          66.1781   92.8533   15.1715 C.ar    1  UNL1        0.0045
     17 C          66.4830   93.7665   14.0211 C.ar    1  UNL1        0.0343
     18 C          66.0755   93.3818   12.6297 C.ar    1  UNL1        0.1317
     19 N          65.3632   92.0839   12.3887 N.ar    1  UNL1       -0.2292
     20 N          66.3804   94.2949   11.4794 N.pl3   1  UNL1       -0.2932
     21 C          66.9430   93.8825   10.1515 C.3     1  UNL1        0.0922
     22 C          67.0865   95.1134    9.3064 C.3     1  UNL1        0.0232
     23 C          66.6126   96.2866   10.1121 C.3     1  UNL1        0.0232
     24 C          66.1762   95.7807   11.4551 C.3     1  UNL1        0.0922
     25 C          64.2831   83.6995   15.3059 C.3     1  UNL1        0.0950
     26 C          64.0663   84.8577   14.3777 C.2     1  UNL1        0.2277
     27 O          63.8485   84.6148   12.9135 O.2     1  UNL1       -0.2747
     28 N          64.0672   86.2587   14.9135 N.am    1  UNL1       -0.2692
     29 H          64.2101   86.4181   15.8744 H       1  UNL1        0.1563
@<TRIPOS>BOND
     1    25    26    1
     2    26    27    2
     3    26    28   am
     4    28     1    1
     5     1     2   ar
     6     2     3   ar
     7     3    14    1
     8    14    15   ar
     9    15    16   ar
    10    16    17   ar
    11    17    18   ar
    12    18    20    1
    13    20    21    1
    14    21    22    1
    15    22    23    1
    16    23    24    1
    17    18    19   ar
    18     3     4   ar
    19     4     5   ar
    20     5     7    1
    21     7     8   ar
    22     8     9   ar
    23     9    10    1
    24     9    11   ar
    25    11    12   ar
    26    12    13    1
    27     5     6   ar
    28     6     1   ar
    29    19    14   ar
    30    12     7   ar
    31    24    20    1
    32    28    29    1
@<TRIPOS>MOLECULE
*****
 29 32 0 0 0
SMALL
GASTEIGER

@<TRIPOS>ATOM
      1 C          61.8786   89.4005   10.3574 C.ar    1  UNL1        0.1389
      2 C          62.7588   90.5317   10.7998 C.ar    1  UNL1        0.0553
      3 C          63.7484   90.3230   11.9076 C.ar    1  UNL1        0.1048
      4 N          63.8577   88.9831   12.5730 N.ar    1  UNL1       -0.2083
      5 C          62.9776   87.8520   12.1306 C.ar    1  UNL1        0.2539
      6 N          61.9880   88.0607   11.0229 N.ar    1  UNL1       -0.1948
      7 N          63.0869   86.5121   12.7961 N.ar    1  UNL1       -0.2008
      8 N          62.4785   85.2317   12.3055 N.ar    1  UNL1       -0.1673
      9 C          62.8394   84.1456   13.2751 C.ar    1  UNL1        0.0806
     10 C          62.4391   82.7037   13.1728 C.3     1  UNL1        0.0540
     11 C          63.6709   84.7547   14.3649 C.ar    1  UNL1        0.0313
     12 C          63.8239   86.2172   14.0688 C.ar    1  UNL1        0.0651
     13 C          64.5809   87.2105   14.8997 C.3     1  UNL1        0.0523
     14 C          64.6286   91.4542   12.3500 C.ar    1  UNL1        0.1005
     15 C          65.1411   91.4989   13.7590 C.ar    1  UNL1        0.0208
     16 C          66.0213   92.6301   14.2013 C.ar    1  UNL1        0.0045
     17 C          66.3890   93.7166   13.2347 C.ar    1  UNL1        0.0343
     18 C          65.8764   93.6719   11.8257 C.ar    1  UNL1        0.1317
     19 N          64.9962   92.5406   11.3833 N.ar    1  UNL1       -0.2292
     20 N          66.2441   94.7583   10.8590 N.pl3   1  UNL1       -0.2932
     21 C          65.5571   96.0845   10.7202 C.3     1  UNL1        0.0922
     22 C          66.2517   96.8552    9.6368 C.3     1  UNL1        0.0232
     23 C          67.3680   96.0052    9.1062 C.3     1  UNL1        0.0232
     24 C          67.3633   94.7093    9.8616 C.3     1  UNL1        0.0922
     25 C          59.2585   88.6363    7.4763 C.3     1  UNL1        0.0950
     26 C          60.2481   88.4276    8.5841 C.2     1  UNL1        0.2277
     27 O          60.5967   87.0373    9.0263 O.2     1  UNL1       -0.2747
     28 N          60.8890   89.6092    9.2497 N.am    1  UNL1       -0.2692
     29 H          60.6602   90.5217    8.9594 H       1  UNL1        0.1563
@<TRIPOS>BOND
     1    25    26    1
     2    26    27    2
     3    26    28   am
     4    28     1    1
     5     1     2   ar
     6     2     3   ar
     7     3    14    1
     8    14    15   ar
     9    15    16   ar
    10    16    17   ar
    11    17    18   ar
    12    18    20    1
    13    20    21    1
    14    21    22    1
    15    22    23    1
    16    23    24    1
    17    18    19   ar
    18     3     4   ar
    19     4     5   ar
    20     5     7    1
    21     7     8   ar
    22     8     9   ar
    23     9    10    1
    24     9    11   ar
    25    11    12   ar
    26    12    13    1
    27     5     6   ar
    28     6     1   ar
    29    19    14   ar
    30    12     7   ar
    31    24    20    1
    32    28    29    1
@<TRIPOS>MOLECULE
*****
 29 32 0 0 0
SMALL
GASTEIGER

@<TRIPOS>ATOM
      1 C          63.4887   90.3427   12.1445 C.ar    1  UNL1        0.1389
      2 C          63.8143   89.1650   13.0145 C.ar    1  UNL1        0.0553
      3 C          63.2414   87.8158   12.6957 C.ar    1  UNL1        0.1048
      4 N          62.3429   87.6445   11.5069 N.ar    1  UNL1       -0.2083
      5 C          62.0173   88.8222   10.6369 C.ar    1  UNL1        0.2539
      6 N          62.5902   90.1713   10.9558 N.ar    1  UNL1       -0.1948
      7 N          61.1187   88.6508    9.4481 N.ar    1  UNL1       -0.2008
      8 N          60.5297   89.7554    8.6216 N.ar    1  UNL1       -0.1673
      9 C          59.6984   89.1321    7.5398 C.ar    1  UNL1        0.0806
     10 C          58.9272   89.8692    6.4853 C.3     1  UNL1        0.0540
     11 C          59.7736   87.6423    7.6976 C.ar    1  UNL1        0.0313
     12 C          60.6514   87.3449    8.8770 C.ar    1  UNL1        0.0651
     13 C          61.0006   85.9810    9.3945 C.3     1  UNL1        0.0523
     14 C          63.5671   86.6381   13.5657 C.ar    1  UNL1        0.1005
     15 C          64.3595   86.8319   14.8245 C.ar    1  UNL1        0.0208
     16 C          64.6852   85.6542   15.6945 C.ar    1  UNL1        0.0045
     17 C          64.2184   84.2826   15.3058 C.ar    1  UNL1        0.0343
     18 C          63.4260   84.0889   14.0470 C.ar    1  UNL1        0.1317
     19 N          63.1003   85.2666   13.1770 N.ar    1  UNL1       -0.2292
     20 N          62.9592   82.7174   13.6583 N.pl3   1  UNL1       -0.2932
     21 C          63.4567   81.9139   12.4934 C.3     1  UNL1        0.0922
     22 C          62.7179   80.6085   12.4813 C.3     1  UNL1        0.0232
     23 C          61.7638   80.6052   13.6388 C.3     1  UNL1        0.0232
     24 C          61.9129   81.9086   14.3662 C.3     1  UNL1        0.0922
     25 C          65.5795   93.7004   11.8219 C.3     1  UNL1        0.0950
     26 C          65.0066   92.3513   11.5031 C.2     1  UNL1        0.2277
     27 O          65.3787   91.6617   10.2240 O.2     1  UNL1       -0.2747
     28 N          64.0616   91.6918   12.4633 N.am    1  UNL1       -0.2692
     29 H          63.8175   92.1444   13.3028 H       1  UNL1        0.1563
@<TRIPOS>BOND
     1    25    26    1
     2    26    27    2
     3    26    28   am
     4    28     1    1
     5     1     2   ar
     6     2     3   ar
     7     3    14    1
     8    14    15   ar
     9    15    16   ar
    10    16    17   ar
    11    17    18   ar
    12    18    20    1
    13    20    21    1
    14    21    22    1
    15    22    23    1
    16    23    24    1
    17    18    19   ar
    18     3     4   ar
    19     4     5   ar
    20     5     7    1
    21     7     8   ar
    22     8     9   ar
    23     9    10    1
    24     9    11   ar
    25    11    12   ar
    26    12    13    1
    27     5     6   ar
    28     6     1   ar
    29    19    14   ar
    30    12     7   ar
    31    24    20    1
    32    28    29    1
@<TRIPOS>MOLECULE
*****
 29 32 0 0 0
SMALL
GASTEIGER

@<TRIPOS>ATOM
      1 C          62.8775   89.1703   11.3343 C.ar    1  UNL1        0.1389
      2 C          63.6545   90.4505   11.4190 C.ar    1  UNL1        0.0553
      3 C          64.3847   90.8026   12.6810 C.ar    1  UNL1        0.1048
      4 N          64.3381   89.8744   13.8584 N.ar    1  UNL1       -0.2083
      5 C          63.5612   88.5941   13.7737 C.ar    1  UNL1        0.2539
      6 N          62.8309   88.2420   12.5116 N.ar    1  UNL1       -0.1948
      7 N          63.5145   87.6658   14.9511 N.ar    1  UNL1       -0.2008
      8 N          63.0120   88.0062   16.3228 N.ar    1  UNL1       -0.1673
      9 C          63.1490   86.7850   17.1830 C.ar    1  UNL1        0.0806
     10 C          62.7661   86.6778   18.6293 C.3     1  UNL1        0.0540
     11 C          63.7362   85.6898   16.3428 C.ar    1  UNL1        0.0313
     12 C          63.9621   86.2342   14.9634 C.ar    1  UNL1        0.0651
     13 C          64.5350   85.4795   13.8006 C.3     1  UNL1        0.0523
     14 C          65.1617   92.0830   12.7657 C.ar    1  UNL1        0.1005
     15 C          65.7808   92.4999   14.0668 C.ar    1  UNL1        0.0208
     16 C          66.5577   93.7802   14.1515 C.ar    1  UNL1        0.0045
     17 C          66.7155   94.6436   12.9351 C.ar    1  UNL1        0.0343
     18 C          66.0964   94.2267   11.6340 C.ar    1  UNL1        0.1317
     19 N          65.3195   92.9463   11.5493 N.ar    1  UNL1       -0.2292
     20 N          66.2542   95.0901   10.4176 N.pl3   1  UNL1       -0.2932
     21 C          67.2665   94.9004    9.3270 C.3     1  UNL1        0.0922
     22 C          67.0654   95.9878    8.3136 C.3     1  UNL1        0.0232
     23 C          65.9287   96.8495    8.7778 C.3     1  UNL1        0.0232
     24 C          65.4274   96.2947   10.0781 C.3     1  UNL1        0.0922
     25 C          60.0694   89.0632    8.5320 C.3     1  UNL1        0.0950
     26 C          60.7997   89.4152    9.7940 C.2     1  UNL1        0.2277
     27 O          60.1823   90.3644   10.7779 O.2     1  UNL1       -0.2747
     28 N          62.1473   88.8182   10.0722 N.am    1  UNL1       -0.2692
     29 H          62.5525   88.1952    9.4265 H       1  UNL1        0.1563
@<TRIPOS>BOND
     1    25    26    1
     2    26    27    2
     3    26    28   am
     4    28     1    1
     5     1     2   ar
     6     2     3   ar
     7     3    14    1
     8    14    15   ar
     9    15    16   ar
    10    16    17   ar
    11    17    18   ar
    12    18    20    1
    13    20    21    1
    14    21    22    1
    15    22    23    1
    16    23    24    1
    17    18    19   ar
    18     3     4   ar
    19     4     5   ar
    20     5     7    1
    21     7     8   ar
    22     8     9   ar
    23     9    10    1
    24     9    11   ar
    25    11    12   ar
    26    12    13    1
    27     5     6   ar
    28     6     1   ar
    29    19    14   ar
    30    12     7   ar
    31    24    20    1
    32    28    29    1
