@<TRIPOS>MOLECULE
*****
 29 31 0 0 0
SMALL
GASTEIGER

@<TRIPOS>ATOM
      1 C          62.4172   86.3751   17.5824 C.3     1  UNL1        0.0527
      2 C          63.1618   86.9631   16.4206 C.ar    1  UNL1        0.0673
      3 N          63.5680   88.3992   16.2693 N.ar    1  UNL1       -0.2283
      4 C          64.2883   88.5418   14.9613 C.ar    1  UNL1        0.1652
      5 S          64.3272   87.1940   14.3041 S.2     1  UNL1       -0.0517
      6 C          63.6311   86.2183   15.2060 C.ar    1  UNL1        0.0471
      7 C          63.4381   84.7548   14.9400 C.ar    1  UNL1        0.0265
      8 C          62.0541   84.1952   14.7933 C.ar    1  UNL1        0.0049
      9 C          61.8611   82.7318   14.5273 C.ar    1  UNL1        0.0339
     10 C          63.0520   81.8277   14.4080 C.ar    1  UNL1        0.1254
     11 N          62.8590   80.3641   14.1420 N.pl3   1  UNL1       -0.3426
     12 N          64.4361   82.3872   14.5547 N.ar    1  UNL1       -0.2296
     13 C          64.6290   83.8507   14.8207 C.ar    1  UNL1        0.1008
     14 H          61.9507   79.9969   14.0458 H       1  UNL1        0.1437
     15 H          63.6407   79.7707   14.0637 H       1  UNL1        0.1437
     16 N          64.8678   89.8098   14.4076 N.am    1  UNL1       -0.2642
     17 C          64.3260   90.3888   13.1344 C.2     1  UNL1        0.2270
     18 O          63.2046   89.6998   12.4147 O.2     1  UNL1       -0.2747
     19 H          65.6038   90.2620   14.8800 H       1  UNL1        0.1567
     20 C          64.9055   91.6567   12.5808 C.3     1  UNL1        0.0769
     21 C          65.7285   92.5515   13.4594 C.3     1  UNL1        0.0094
     22 C          66.3080   93.8194   12.9057 C.3     1  UNL1        0.0090
     23 C          66.0645   94.1925   11.4734 C.3     1  UNL1        0.0952
     24 C          65.2415   93.2978   10.5948 C.3     1  UNL1        0.0090
     25 C          64.6620   92.0299   11.1485 C.3     1  UNL1        0.0094
     26 C          66.6440   95.4605   10.9198 C.3     1  UNL1        0.3975
     27 F          67.2235   96.7285   10.3662 F       1  UNL1       -0.1701
     28 F          67.4301   94.6649    9.9203 F       1  UNL1       -0.1701
     29 F          65.8579   96.2562   11.9193 F       1  UNL1       -0.1701
@<TRIPOS>BOND
     1     1     2    1
     2     2     3   ar
     3     3     4   ar
     4     4    16    1
     5    16    17   am
     6    17    18    2
     7    20    17    1
     8    20    21    1
     9    21    22    1
    10    22    23    1
    11    23    26    1
    12    26    27    1
    13    26    28    1
    14    26    29    1
    15    23    24    1
    16    24    25    1
    17     4     5   ar
    18     5     6   ar
    19     6     7    1
    20     7     8   ar
    21     8     9   ar
    22     9    10   ar
    23    10    11    1
    24    10    12   ar
    25    12    13   ar
    26     6     2   ar
    27    13     7   ar
    28    25    20    1
    29    16    19    1
    30    11    14    1
    31    11    15    1
@<TRIPOS>MOLECULE
*****
 29 31 0 0 0
SMALL
GASTEIGER

@<TRIPOS>ATOM
      1 C          64.1837   92.0521   16.3842 C.3     1  UNL1        0.0527
      2 C          64.2485   90.8242   15.5251 C.ar    1  UNL1        0.0673
      3 N          63.8288   89.4420   15.9295 N.ar    1  UNL1       -0.2283
      4 C          64.0653   88.5265   14.7650 C.ar    1  UNL1        0.1652
      5 S          64.6311   89.3428   13.6410 S.2     1  UNL1       -0.0517
      6 C          64.7443   90.7629   14.1107 C.ar    1  UNL1        0.0471
      7 C          65.2624   91.9186   13.3072 C.ar    1  UNL1        0.0265
      8 C          64.8905   92.0528   11.8602 C.ar    1  UNL1        0.0049
      9 C          65.4086   93.2085   11.0567 C.ar    1  UNL1        0.0339
     10 C          66.2986   94.2302   11.7000 C.ar    1  UNL1        0.1254
     11 N          66.8167   95.3860   10.8965 N.pl3   1  UNL1       -0.3426
     12 N          66.6706   94.0961   13.1471 N.ar    1  UNL1       -0.2296
     13 C          66.1524   92.9403   13.9505 C.ar    1  UNL1        0.1008
     14 H          66.5726   95.4740    9.9468 H       1  UNL1        0.1437
     15 H          67.4009   96.0566   11.3187 H       1  UNL1        0.1437
     16 N          63.7851   87.0532   14.7307 N.am    1  UNL1       -0.2642
     17 C          63.2861   86.4139   13.4690 C.2     1  UNL1        0.2270
     18 O          63.0673   87.2477   12.2414 O.2     1  UNL1       -0.2747
     19 H          63.9288   86.5060   15.5364 H       1  UNL1        0.1567
     20 C          63.0060   84.9406   13.4346 C.3     1  UNL1        0.0769
     21 C          63.0178   84.2052   12.1274 C.3     1  UNL1        0.0094
     22 C          62.7376   82.7320   12.0931 C.3     1  UNL1        0.0090
     23 C          62.4457   81.9943   13.3661 C.3     1  UNL1        0.0952
     24 C          62.4339   82.7297   14.6734 C.3     1  UNL1        0.0090
     25 C          62.7140   84.2029   14.7076 C.3     1  UNL1        0.0094
     26 C          62.1655   80.5210   13.3318 C.3     1  UNL1        0.3975
     27 F          61.8854   79.0478   13.2975 F       1  UNL1       -0.1701
     28 F          61.1662   80.6852   14.4384 F       1  UNL1       -0.1701
     29 F          63.1647   80.3568   12.2253 F       1  UNL1       -0.1701
@<TRIPOS>BOND
     1     1     2    1
     2     2     3   ar
     3     3     4   ar
     4     4    16    1
     5    16    17   am
     6    17    18    2
     7    20    17    1
     8    20    21    1
     9    21    22    1
    10    22    23    1
    11    23    26    1
    12    26    27    1
    13    26    28    1
    14    26    29    1
    15    23    24    1
    16    24    25    1
    17     4     5   ar
    18     5     6   ar
    19     6     7    1
    20     7     8   ar
    21     8     9   ar
    22     9    10   ar
    23    10    11    1
    24    10    12   ar
    25    12    13   ar
    26     6     2   ar
    27    13     7   ar
    28    25    20    1
    29    16    19    1
    30    11    14    1
    31    11    15    1
@<TRIPOS>MOLECULE
*****
 29 31 0 0 0
SMALL
GASTEIGER

@<TRIPOS>ATOM
      1 C          63.3747   90.3057   16.8355 C.3     1  UNL1        0.0527
      2 C          63.7313   89.3089   15.7729 C.ar    1  UNL1        0.0673
      3 N          63.3913   87.8479   15.7846 N.ar    1  UNL1       -0.2283
      4 C          63.9405   87.2342   14.5309 C.ar    1  UNL1        0.1652
      5 S          64.6199   88.3157   13.7444 S.2     1  UNL1       -0.0517
      6 C          64.4907   89.5979   14.5120 C.ar    1  UNL1        0.0471
      7 C          65.0266   90.9345   14.0923 C.ar    1  UNL1        0.0265
      8 C          65.9825   91.6724   14.9823 C.ar    1  UNL1        0.0049
      9 C          66.5184   93.0090   14.5626 C.ar    1  UNL1        0.0339
     10 C          66.0986   93.6078   13.2530 C.ar    1  UNL1        0.1254
     11 N          66.6346   94.9445   12.8333 N.pl3   1  UNL1       -0.3426
     12 N          65.1428   92.8700   12.3630 N.ar    1  UNL1       -0.2296
     13 C          64.6069   91.5333   12.7827 C.ar    1  UNL1        0.1008
     14 H          67.2620   95.4287   13.4174 H       1  UNL1        0.1437
     15 H          66.3591   95.3375   11.9738 H       1  UNL1        0.1437
     16 N          63.8296   85.7920   14.1336 N.am    1  UNL1       -0.2642
     17 C          63.1814   85.4201   12.8330 C.2     1  UNL1        0.2270
     18 O          62.6441   86.4903   11.9297 O.2     1  UNL1       -0.2747
     19 H          64.1823   85.0895   14.7264 H       1  UNL1        0.1567
     20 C          63.0706   83.9779   12.4356 C.3     1  UNL1        0.0769
     21 C          62.4789   82.9810   13.3875 C.3     1  UNL1        0.0094
     22 C          62.3681   81.5389   12.9901 C.3     1  UNL1        0.0090
     23 C          62.8489   81.0936   11.6408 C.3     1  UNL1        0.0952
     24 C          63.4406   82.0905   10.6890 C.3     1  UNL1        0.0090
     25 C          63.5514   83.5326   11.0864 C.3     1  UNL1        0.0094
     26 C          62.7381   79.6514   11.2435 C.3     1  UNL1        0.3975
     27 F          62.6272   78.2093   10.8461 F       1  UNL1       -0.1701
     28 F          62.5126   79.2736   12.6775 F       1  UNL1       -0.1701
     29 F          62.9635   80.0292    9.8095 F       1  UNL1       -0.1701
@<TRIPOS>BOND
     1     1     2    1
     2     2     3   ar
     3     3     4   ar
     4     4    16    1
     5    16    17   am
     6    17    18    2
     7    20    17    1
     8    20    21    1
     9    21    22    1
    10    22    23    1
    11    23    26    1
    12    26    27    1
    13    26    28    1
    14    26    29    1
    15    23    24    1
    16    24    25    1
    17     4     5   ar
    18     5     6   ar
    19     6     7    1
    20     7     8   ar
    21     8     9   ar
    22     9    10   ar
    23    10    11    1
    24    10    12   ar
    25    12    13   ar
    26     6     2   ar
    27    13     7   ar
    28    25    20    1
    29    16    19    1
    30    11    14    1
    31    11    15    1
@<TRIPOS>MOLECULE
*****
 29 31 0 0 0
SMALL
GASTEIGER

@<TRIPOS>ATOM
      1 C          63.8124   92.1348   11.4961 C.3     1  UNL1        0.0527
      2 C          63.8906   90.8102   12.1955 C.ar    1  UNL1        0.0673
      3 N          63.1281   89.5721   11.8268 N.ar    1  UNL1       -0.2283
      4 C          63.5113   88.4878   12.7899 C.ar    1  UNL1        0.1652
      5 S          64.5105   89.0556   13.7538 S.2     1  UNL1       -0.0517
      6 C          64.7449   90.4909   13.3865 C.ar    1  UNL1        0.0471
      7 C          65.6710   91.4403   14.0870 C.ar    1  UNL1        0.0265
      8 C          65.4038   91.8369   15.5088 C.ar    1  UNL1        0.0049
      9 C          66.3299   92.7863   16.2093 C.ar    1  UNL1        0.0339
     10 C          67.5234   93.3392   15.4882 C.ar    1  UNL1        0.1254
     11 N          68.4495   94.2886   16.1888 N.pl3   1  UNL1       -0.3426
     12 N          67.7906   92.9427   14.0664 N.ar    1  UNL1       -0.2296
     13 C          66.8644   91.9932   13.3659 C.ar    1  UNL1        0.1008
     14 H          68.2741   94.5489   17.1219 H       1  UNL1        0.1437
     15 H          69.2328   94.6515   15.7155 H       1  UNL1        0.1437
     16 N          62.9872   87.0823   12.7891 N.am    1  UNL1       -0.2642
     17 C          63.6621   86.0297   13.6177 C.2     1  UNL1        0.2270
     18 O          64.8611   86.3826   14.4471 O.2     1  UNL1       -0.2747
     19 H          62.2002   86.8506   12.2448 H       1  UNL1        0.1567
     20 C          63.1379   84.6242   13.6170 C.3     1  UNL1        0.0769
     21 C          63.1758   83.8103   12.3576 C.3     1  UNL1        0.0094
     22 C          62.6517   82.4049   12.3568 C.3     1  UNL1        0.0090
     23 C          62.0898   81.8133   13.6155 C.3     1  UNL1        0.0952
     24 C          62.0519   82.6272   14.8749 C.3     1  UNL1        0.0090
     25 C          62.5760   84.0326   14.8756 C.3     1  UNL1        0.0094
     26 C          61.5656   80.4078   13.6148 C.3     1  UNL1        0.3975
     27 F          61.0416   79.0024   13.6140 F       1  UNL1       -0.1701
     28 F          60.4437   80.8256   14.5184 F       1  UNL1       -0.1701
     29 F          62.6876   79.9900   12.7111 F       1  UNL1       -0.1701
@<TRIPOS>BOND
     1     1     2    1
     2     2     3   ar
     3     3     4   ar
     4     4    16    1
     5    16    17   am
     6    17    18    2
     7    20    17    1
     8    20    21    1
     9    21    22    1
    10    22    23    1
    11    23    26    1
    12    26    27    1
    13    26    28    1
    14    26    29    1
    15    23    24    1
    16    24    25    1
    17     4     5   ar
    18     5     6   ar
    19     6     7    1
    20     7     8   ar
    21     8     9   ar
    22     9    10   ar
    23    10    11    1
    24    10    12   ar
    25    12    13   ar
    26     6     2   ar
    27    13     7   ar
    28    25    20    1
    29    16    19    1
    30    11    14    1
    31    11    15    1
@<TRIPOS>MOLECULE
*****
 29 31 0 0 0
SMALL
GASTEIGER

@<TRIPOS>ATOM
      1 C          62.1479   91.0002   11.2587 C.3     1  UNL1        0.0527
      2 C          62.5368   89.6088   11.6620 C.ar    1  UNL1        0.0673
      3 N          62.1703   88.3464   10.9393 N.ar    1  UNL1       -0.2283
      4 C          62.7675   87.1928   11.6895 C.ar    1  UNL1        0.1652
      5 S          63.5030   87.7422   12.8757 S.2     1  UNL1       -0.0517
      6 C          63.3604   89.2353   12.8588 C.ar    1  UNL1        0.0471
      7 C          63.9397   90.1877   13.8623 C.ar    1  UNL1        0.0265
      8 C          65.1828   90.9599   13.5330 C.ar    1  UNL1        0.0049
      9 C          65.7621   91.9123   14.5365 C.ar    1  UNL1        0.0339
     10 C          65.0984   92.0926   15.8695 C.ar    1  UNL1        0.1254
     11 N          65.6777   93.0451   16.8732 N.pl3   1  UNL1       -0.3426
     12 N          63.8552   91.3204   16.1990 N.ar    1  UNL1       -0.2296
     13 C          63.2760   90.3680   15.1953 C.ar    1  UNL1        0.1008
     14 H          66.4936   93.5519   16.6570 H       1  UNL1        0.1437
     15 H          65.2421   93.1634   17.7481 H       1  UNL1        0.1437
     16 N          62.6498   85.7442   11.3184 N.am    1  UNL1       -0.2642
     17 C          63.2450   84.6918   12.2062 C.2     1  UNL1        0.2270
     18 O          63.9580   85.0880   13.4650 O.2     1  UNL1       -0.2747
     19 H          62.1818   85.4841   10.4922 H       1  UNL1        0.1567
     20 C          63.1273   83.2432   11.8351 C.3     1  UNL1        0.0769
     21 C          62.5517   82.2627   12.8135 C.3     1  UNL1        0.0094
     22 C          62.4340   80.8142   12.4425 C.3     1  UNL1        0.0090
     23 C          62.8920   80.3460   11.0930 C.3     1  UNL1        0.0952
     24 C          63.4676   81.3264   10.1146 C.3     1  UNL1        0.0090
     25 C          63.5853   82.7750   10.4857 C.3     1  UNL1        0.0094
     26 C          62.7743   78.8973   10.7219 C.3     1  UNL1        0.3975
     27 F          62.6566   77.4488   10.3509 F       1  UNL1       -0.1701
     28 F          62.5423   78.5473   12.1619 F       1  UNL1       -0.1701
     29 F          63.0062   79.2474    9.2820 F       1  UNL1       -0.1701
@<TRIPOS>BOND
     1     1     2    1
     2     2     3   ar
     3     3     4   ar
     4     4    16    1
     5    16    17   am
     6    17    18    2
     7    20    17    1
     8    20    21    1
     9    21    22    1
    10    22    23    1
    11    23    26    1
    12    26    27    1
    13    26    28    1
    14    26    29    1
    15    23    24    1
    16    24    25    1
    17     4     5   ar
    18     5     6   ar
    19     6     7    1
    20     7     8   ar
    21     8     9   ar
    22     9    10   ar
    23    10    11    1
    24    10    12   ar
    25    12    13   ar
    26     6     2   ar
    27    13     7   ar
    28    25    20    1
    29    16    19    1
    30    11    14    1
    31    11    15    1
@<TRIPOS>MOLECULE
*****
 29 31 0 0 0
SMALL
GASTEIGER

@<TRIPOS>ATOM
      1 C          59.1158   88.7340   11.5811 C.3     1  UNL1        0.0527
      2 C          60.5716   89.0876   11.5063 C.ar    1  UNL1        0.0673
      3 N          61.2892   90.0615   12.3934 N.ar    1  UNL1       -0.2283
      4 C          62.7265   90.1051   11.9665 C.ar    1  UNL1        0.1652
      5 S          62.8973   89.1584   10.8156 S.2     1  UNL1       -0.0517
      6 C          61.5655   88.5296   10.5311 C.ar    1  UNL1        0.0471
      7 C          61.2781   87.5200    9.4598 C.ar    1  UNL1        0.0265
      8 C          62.3113   86.4939    9.0994 C.ar    1  UNL1        0.0049
      9 C          62.0239   85.4843    8.0280 C.ar    1  UNL1        0.0339
     10 C          60.7032   85.5007    7.3169 C.ar    1  UNL1        0.1254
     11 N          60.4158   84.4910    6.2454 N.pl3   1  UNL1       -0.3426
     12 N          59.6700   86.5267    7.6772 N.ar    1  UNL1       -0.2296
     13 C          59.9575   87.5363    8.7486 C.ar    1  UNL1        0.1008
     14 H          61.0939   83.8176    6.0089 H       1  UNL1        0.1437
     15 H          59.5490   84.5017    5.7787 H       1  UNL1        0.1437
     16 N          63.8039   90.9477   12.5824 N.am    1  UNL1       -0.2642
     17 C          64.6536   90.3901   13.6856 C.2     1  UNL1        0.2270
     18 O          64.4259   88.9898   14.1729 O.2     1  UNL1       -0.2747
     19 H          63.9534   91.8668   12.2626 H       1  UNL1        0.1567
     20 C          65.7310   91.2326   14.3016 C.3     1  UNL1        0.0769
     21 C          67.0311   91.4324   13.5807 C.3     1  UNL1        0.0094
     22 C          68.1084   92.2749   14.1967 C.3     1  UNL1        0.0090
     23 C          67.8856   92.9177   15.5335 C.3     1  UNL1        0.0952
     24 C          66.5855   92.7180   16.2544 C.3     1  UNL1        0.0090
     25 C          65.5082   91.8755   15.6384 C.3     1  UNL1        0.0094
     26 C          68.9630   93.7603   16.1495 C.3     1  UNL1        0.3975
     27 F          70.0404   94.6028   16.7654 F       1  UNL1       -0.1701
     28 F          68.3529   94.9870   15.5388 F       1  UNL1       -0.1701
     29 F          69.5731   92.5337   16.7601 F       1  UNL1       -0.1701
@<TRIPOS>BOND
     1     1     2    1
     2     2     3   ar
     3     3     4   ar
     4     4    16    1
     5    16    17   am
     6    17    18    2
     7    20    17    1
     8    20    21    1
     9    21    22    1
    10    22    23    1
    11    23    26    1
    12    26    27    1
    13    26    28    1
    14    26    29    1
    15    23    24    1
    16    24    25    1
    17     4     5   ar
    18     5     6   ar
    19     6     7    1
    20     7     8   ar
    21     8     9   ar
    22     9    10   ar
    23    10    11    1
    24    10    12   ar
    25    12    13   ar
    26     6     2   ar
    27    13     7   ar
    28    25    20    1
    29    16    19    1
    30    11    14    1
    31    11    15    1
@<TRIPOS>MOLECULE
*****
 29 31 0 0 0
SMALL
GASTEIGER

@<TRIPOS>ATOM
      1 C          60.1373   90.4210   11.5862 C.3     1  UNL1        0.0527
      2 C          61.0403   89.2311   11.4497 C.ar    1  UNL1        0.0673
      3 N          60.6030   87.8124   11.2343 N.ar    1  UNL1       -0.2283
      4 C          61.8317   86.9555   11.1561 C.ar    1  UNL1        0.1652
      5 S          63.0283   87.8445   11.3231 S.2     1  UNL1       -0.0517
      6 C          62.5392   89.2509   11.5045 C.ar    1  UNL1        0.0471
      7 C          63.3982   90.4640   11.7054 C.ar    1  UNL1        0.0265
      8 C          63.7011   91.3687   10.5480 C.ar    1  UNL1        0.0049
      9 C          64.5601   92.5818   10.7489 C.ar    1  UNL1        0.0339
     10 C          65.1162   92.8903   12.1074 C.ar    1  UNL1        0.1254
     11 N          65.9752   94.1034   12.3084 N.pl3   1  UNL1       -0.3426
     12 N          64.8133   91.9856   13.2650 N.ar    1  UNL1       -0.2296
     13 C          63.9543   90.7725   13.0639 C.ar    1  UNL1        0.1008
     14 H          66.1740   94.6972   11.5487 H       1  UNL1        0.1437
     15 H          66.3402   94.3059   13.2000 H       1  UNL1        0.1437
     16 N          61.8589   85.4703   10.9475 N.am    1  UNL1       -0.2642
     17 C          62.7291   84.6073   11.8123 C.2     1  UNL1        0.2270
     18 O          63.5722   85.2295   12.8857 O.2     1  UNL1       -0.2747
     19 H          61.3056   85.0620   10.2430 H       1  UNL1        0.1567
     20 C          62.7563   83.1221   11.6037 C.3     1  UNL1        0.0769
     21 C          63.2327   82.5566   10.2986 C.3     1  UNL1        0.0094
     22 C          63.2599   81.0715   10.0901 C.3     1  UNL1        0.0090
     23 C          62.8107   80.1518   11.1866 C.3     1  UNL1        0.0952
     24 C          62.3343   80.7173   12.4917 C.3     1  UNL1        0.0090
     25 C          62.3071   82.2024   12.7002 C.3     1  UNL1        0.0094
     26 C          62.8379   78.6666   10.9780 C.3     1  UNL1        0.3975
     27 F          62.8651   77.1814   10.7695 F       1  UNL1       -0.1701
     28 F          63.1213   78.8764    9.5201 F       1  UNL1       -0.1701
     29 F          62.5544   78.4567   12.4360 F       1  UNL1       -0.1701
@<TRIPOS>BOND
     1     1     2    1
     2     2     3   ar
     3     3     4   ar
     4     4    16    1
     5    16    17   am
     6    17    18    2
     7    20    17    1
     8    20    21    1
     9    21    22    1
    10    22    23    1
    11    23    26    1
    12    26    27    1
    13    26    28    1
    14    26    29    1
    15    23    24    1
    16    24    25    1
    17     4     5   ar
    18     5     6   ar
    19     6     7    1
    20     7     8   ar
    21     8     9   ar
    22     9    10   ar
    23    10    11    1
    24    10    12   ar
    25    12    13   ar
    26     6     2   ar
    27    13     7   ar
    28    25    20    1
    29    16    19    1
    30    11    14    1
    31    11    15    1
@<TRIPOS>MOLECULE
*****
 29 31 0 0 0
SMALL
GASTEIGER

@<TRIPOS>ATOM
      1 C          60.4084   90.9963   11.0731 C.3     1  UNL1        0.0527
      2 C          61.2411   89.7693   11.2984 C.ar    1  UNL1        0.0673
      3 N          60.7380   88.3566   11.3344 N.ar    1  UNL1       -0.2283
      4 C          61.9092   87.4537   11.5856 C.ar    1  UNL1        0.1652
      5 S          63.1361   88.3082   11.7048 S.2     1  UNL1       -0.0517
      6 C          62.7233   89.7393   11.5273 C.ar    1  UNL1        0.0471
      7 C          63.6329   90.9312   11.5711 C.ar    1  UNL1        0.0265
      8 C          64.3375   91.2907   12.8456 C.ar    1  UNL1        0.0049
      9 C          65.2470   92.4826   12.8893 C.ar    1  UNL1        0.0339
     10 C          65.4521   93.3151   11.6586 C.ar    1  UNL1        0.1254
     11 N          66.3617   94.5071   11.7023 N.pl3   1  UNL1       -0.3426
     12 N          64.7476   92.9557   10.3839 N.ar    1  UNL1       -0.2296
     13 C          63.8380   91.7637   10.3403 C.ar    1  UNL1        0.1008
     14 H          66.8241   94.7430   12.5388 H       1  UNL1        0.1437
     15 H          66.4963   95.0535   10.8945 H       1  UNL1        0.1437
     16 N          61.8617   85.9586   11.6978 N.am    1  UNL1       -0.2642
     17 C          62.7658   85.2498   12.6621 C.2     1  UNL1        0.2270
     18 O          63.7176   86.0359   13.5143 O.2     1  UNL1       -0.2747
     19 H          61.2370   85.4426   11.1385 H       1  UNL1        0.1567
     20 C          62.7183   83.7547   12.7744 C.3     1  UNL1        0.0769
     21 C          62.3623   83.1116   14.0819 C.3     1  UNL1        0.0094
     22 C          62.3147   81.6166   14.1941 C.3     1  UNL1        0.0090
     23 C          62.6233   80.7646   12.9987 C.3     1  UNL1        0.0952
     24 C          62.9794   81.4076   11.6912 C.3     1  UNL1        0.0090
     25 C          63.0269   82.9027   11.5790 C.3     1  UNL1        0.0094
     26 C          62.5758   79.2695   13.1109 C.3     1  UNL1        0.3975
     27 F          62.5283   77.7745   13.2232 F       1  UNL1       -0.1701
     28 F          62.5614   79.1577   11.6152 F       1  UNL1       -0.1701
     29 F          62.5902   79.3814   14.6067 F       1  UNL1       -0.1701
@<TRIPOS>BOND
     1     1     2    1
     2     2     3   ar
     3     3     4   ar
     4     4    16    1
     5    16    17   am
     6    17    18    2
     7    20    17    1
     8    20    21    1
     9    21    22    1
    10    22    23    1
    11    23    26    1
    12    26    27    1
    13    26    28    1
    14    26    29    1
    15    23    24    1
    16    24    25    1
    17     4     5   ar
    18     5     6   ar
    19     6     7    1
    20     7     8   ar
    21     8     9   ar
    22     9    10   ar
    23    10    11    1
    24    10    12   ar
    25    12    13   ar
    26     6     2   ar
    27    13     7   ar
    28    25    20    1
    29    16    19    1
    30    11    14    1
    31    11    15    1
@<TRIPOS>MOLECULE
*****
 29 31 0 0 0
SMALL
GASTEIGER

@<TRIPOS>ATOM
      1 C          59.3764   89.4387   10.5836 C.3     1  UNL1        0.0527
      2 C          60.8113   89.2807   10.9912 C.ar    1  UNL1        0.0673
      3 N          61.5248   90.0862   12.0364 N.ar    1  UNL1       -0.2283
      4 C          62.9391   89.5928   12.1164 C.ar    1  UNL1        0.1652
      5 S          63.0997   88.4825   11.1207 S.2     1  UNL1       -0.0517
      6 C          61.7847   88.2896   10.4253 C.ar    1  UNL1        0.0471
      7 C          61.4941   87.2825    9.3524 C.ar    1  UNL1        0.0265
      8 C          60.1592   87.2794    8.6683 C.ar    1  UNL1        0.0049
      9 C          59.8687   86.2723    7.5954 C.ar    1  UNL1        0.0339
     10 C          60.9130   85.2682    7.2065 C.ar    1  UNL1        0.1254
     11 N          60.6224   84.2610    6.1336 N.pl3   1  UNL1       -0.3426
     12 N          62.2480   85.2712    7.8906 N.ar    1  UNL1       -0.2296
     13 C          62.5384   86.2784    8.9636 C.ar    1  UNL1        0.1008
     14 H          59.7462   84.2590    5.6846 H       1  UNL1        0.1437
     15 H          61.3078   83.6020    5.8784 H       1  UNL1        0.1437
     16 N          64.0055   90.1176   13.0315 N.am    1  UNL1       -0.2642
     17 C          64.8574   91.2758   12.6039 C.2     1  UNL1        0.2270
     18 O          64.6430   91.9091   11.2611 O.2     1  UNL1       -0.2747
     19 H          64.1462   89.7020   13.9128 H       1  UNL1        0.1567
     20 C          65.9238   91.8006   13.5190 C.3     1  UNL1        0.0769
     21 C          65.5938   92.1285   14.9450 C.3     1  UNL1        0.0094
     22 C          66.6602   92.6533   15.8600 C.3     1  UNL1        0.0090
     23 C          68.0566   92.8503   15.3490 C.3     1  UNL1        0.0952
     24 C          68.3867   92.5224   13.9230 C.3     1  UNL1        0.0090
     25 C          67.3203   91.9976   13.0080 C.3     1  UNL1        0.0094
     26 C          69.1230   93.3752   16.2641 C.3     1  UNL1        0.3975
     27 F          70.1894   93.9000   17.1791 F       1  UNL1       -0.1701
     28 F          69.7322   92.0065   16.3392 F       1  UNL1       -0.1701
     29 F          68.5139   94.7438   16.1889 F       1  UNL1       -0.1701
@<TRIPOS>BOND
     1     1     2    1
     2     2     3   ar
     3     3     4   ar
     4     4    16    1
     5    16    17   am
     6    17    18    2
     7    20    17    1
     8    20    21    1
     9    21    22    1
    10    22    23    1
    11    23    26    1
    12    26    27    1
    13    26    28    1
    14    26    29    1
    15    23    24    1
    16    24    25    1
    17     4     5   ar
    18     5     6   ar
    19     6     7    1
    20     7     8   ar
    21     8     9   ar
    22     9    10   ar
    23    10    11    1
    24    10    12   ar
    25    12    13   ar
    26     6     2   ar
    27    13     7   ar
    28    25    20    1
    29    16    19    1
    30    11    14    1
    31    11    15    1
