@<TRIPOS>MOLECULE
*****
 37 42 0 0 0
SMALL
GASTEIGER

@<TRIPOS>ATOM
      1 C          59.7812   87.6551    9.5921 C.3     1  UNL1        0.0468
      2 C          60.7545   86.6204    9.1103 C.ar    1  UNL1        0.0146
      3 C          60.8934   86.3476    7.6419 C.ar    1  UNL1       -0.0011
      4 C          61.8667   85.3129    7.1601 C.ar    1  UNL1        0.0014
      5 C          62.7011   84.5511    8.1467 C.ar    1  UNL1        0.0206
      6 C          62.5622   84.8239    9.6151 C.ar    1  UNL1        0.0989
      7 C          61.5889   85.8586   10.0969 C.ar    1  UNL1        0.1511
      8 O          61.4500   86.1315   11.5653 O.3     1  UNL1       -0.4678
      9 C          62.2844   85.3697   12.5520 C.3     1  UNL1        0.2510
     10 C          63.2577   84.3350   12.0701 C.ar    1  UNL1        0.1087
     11 C          64.2074   83.4329   12.8011 C.ar    1  UNL1        0.1514
     12 N          64.9332   82.6025   11.7844 N.ar    1  UNL1       -0.2192
     13 C          64.4321   82.9914   10.4251 C.ar    1  UNL1        0.1828
     14 N          63.3966   84.0621   10.6017 N.ar    1  UNL1       -0.2851
     15 C          64.3978   83.3719   14.2877 C.2     1  UNL1        0.2618
     16 N          65.2366   84.4054   14.9793 N.am    1  UNL1       -0.3240
     17 O          63.7495   82.2775   15.0826 O.2     1  UNL1       -0.2687
     18 H          65.6621   85.1237   14.4576 H       1  UNL1        0.1453
     19 H          65.3616   84.3654   15.9551 H       1  UNL1        0.1453
     20 C          60.0312   88.3762   10.8835 C.3     1  UNL1        0.0770
     21 N          63.4814   91.2446   11.2275 N.pl3   1  UNL1       -0.3046
     22 C          62.7824   91.0665    9.9123 C.3     1  UNL1        0.1081
     23 C          61.6323   90.1103    9.7976 C.3     1  UNL1        0.0938
     24 N          61.1812   89.3323   10.9981 N.3     1  UNL1       -0.2695
     25 C          61.8802   89.5105   12.3133 C.3     1  UNL1        0.0938
     26 C          63.0303   90.4666   12.4280 C.3     1  UNL1        0.1081
     27 C          68.0178   92.2402   16.2949 C.3     1  UNL1        0.0521
     28 C          67.1712   92.2303   15.0567 C.ar    1  UNL1        0.0593
     29 C          66.0212   91.2742   14.9421 C.ar    1  UNL1        0.0148
     30 C          65.1746   91.2643   13.7039 C.ar    1  UNL1        0.0039
     31 C          65.4780   92.2106   12.5803 C.ar    1  UNL1        0.0310
     32 C          64.6314   92.2007   11.3421 C.ar    1  UNL1        0.0493
     33 C          64.9349   93.1471   10.2185 C.ar    1  UNL1        0.0146
     34 C          66.0849   94.1032   10.3332 C.ar    1  UNL1        0.0028
     35 C          66.9315   94.1131   11.5714 C.ar    1  UNL1        0.0192
     36 C          66.6281   93.1668   12.6949 C.ar    1  UNL1        0.0821
     37 N          67.4747   93.1767   13.9331 N.ar    1  UNL1       -0.2496
@<TRIPOS>BOND
     1    27    28    1
     2    28    29   ar
     3    29    30   ar
     4    30    31   ar
     5    31    32   ar
     6    32    21    1
     7    21    22    1
     8    22    23    1
     9    23    24    1
    10    24    20    1
    11    20     1    1
    12     1     2    1
    13     2     3   ar
    14     3     4   ar
    15     4     5   ar
    16     5     6   ar
    17     6     7   ar
    18     7     8    1
    19     8     9    1
    20     9    10    1
    21    10    11   ar
    22    11    15    1
    23    15    16   am
    24    15    17    2
    25    11    12   ar
    26    12    13   ar
    27    13    14   ar
    28    24    25    1
    29    25    26    1
    30    32    33   ar
    31    33    34   ar
    32    34    35   ar
    33    35    36   ar
    34    36    37   ar
    35    37    28   ar
    36    36    31   ar
    37    26    21    1
    38     7     2   ar
    39    14    10   ar
    40    14     6    1
    41    16    18    1
    42    16    19    1
@<TRIPOS>MOLECULE
*****
 37 42 0 0 0
SMALL
GASTEIGER

@<TRIPOS>ATOM
      1 C          59.5424   87.2962    9.4074 C.3     1  UNL1        0.0468
      2 C          60.6312   86.3530    8.9891 C.ar    1  UNL1        0.0146
      3 C          60.8518   86.0600    7.5346 C.ar    1  UNL1       -0.0011
      4 C          61.9406   85.1169    7.1163 C.ar    1  UNL1        0.0014
      5 C          62.8088   84.4667    8.1525 C.ar    1  UNL1        0.0206
      6 C          62.5882   84.7597    9.6069 C.ar    1  UNL1        0.0989
      7 C          61.4994   85.7029   10.0252 C.ar    1  UNL1        0.1511
      8 O          61.2787   85.9959   11.4797 O.3     1  UNL1       -0.4678
      9 C          62.1469   85.3458   12.5159 C.3     1  UNL1        0.2510
     10 C          63.2357   84.4026   12.0975 C.ar    1  UNL1        0.1087
     11 C          64.2420   83.6183   12.8863 C.ar    1  UNL1        0.1514
     12 N          65.0847   82.8405   11.9192 N.ar    1  UNL1       -0.2192
     13 C          64.5990   83.1442   10.5329 C.ar    1  UNL1        0.1828
     14 N          63.4563   84.1096   10.6431 N.ar    1  UNL1       -0.2851
     15 C          64.3813   83.6127   14.3798 C.2     1  UNL1        0.2618
     16 N          65.2078   84.6637   15.0598 N.am    1  UNL1       -0.3240
     17 O          63.6942   82.5563   15.1932 O.2     1  UNL1       -0.2687
     18 H          65.6588   85.3571   14.5259 H       1  UNL1        0.1453
     19 H          65.2993   84.6601   16.0400 H       1  UNL1        0.1453
     20 C          59.7788   88.7771    9.3731 C.3     1  UNL1        0.0770
     21 N          63.1319   90.5767   11.7747 N.pl3   1  UNL1       -0.3046
     22 C          63.2526   90.4663   10.2837 C.3     1  UNL1        0.1081
     23 C          62.1348   89.8664    9.4831 C.3     1  UNL1        0.0938
     24 N          60.8965   89.3769   10.1736 N.3     1  UNL1       -0.2695
     25 C          60.7758   89.4873   11.6647 C.3     1  UNL1        0.0938
     26 C          61.8935   90.0872   12.4652 C.3     1  UNL1        0.1081
     27 C          67.2633   95.9069   10.4441 C.3     1  UNL1        0.0521
     28 C          66.5099   94.7243   10.9769 C.ar    1  UNL1        0.0593
     29 C          65.3922   94.1244   10.1764 C.ar    1  UNL1        0.0148
     30 C          64.6387   92.9418   10.7092 C.ar    1  UNL1        0.0039
     31 C          65.0030   92.3591   12.0425 C.ar    1  UNL1        0.0310
     32 C          64.2496   91.1766   12.5752 C.ar    1  UNL1        0.0493
     33 C          64.6139   90.5939   13.9086 C.ar    1  UNL1        0.0146
     34 C          65.7315   91.1937   14.7092 C.ar    1  UNL1        0.0028
     35 C          66.4850   92.3763   14.1764 C.ar    1  UNL1        0.0192
     36 C          66.1207   92.9590   12.8431 C.ar    1  UNL1        0.0821
     37 N          66.8742   94.1416   12.3103 N.ar    1  UNL1       -0.2496
@<TRIPOS>BOND
     1    27    28    1
     2    28    29   ar
     3    29    30   ar
     4    30    31   ar
     5    31    32   ar
     6    32    21    1
     7    21    22    1
     8    22    23    1
     9    23    24    1
    10    24    20    1
    11    20     1    1
    12     1     2    1
    13     2     3   ar
    14     3     4   ar
    15     4     5   ar
    16     5     6   ar
    17     6     7   ar
    18     7     8    1
    19     8     9    1
    20     9    10    1
    21    10    11   ar
    22    11    15    1
    23    15    16   am
    24    15    17    2
    25    11    12   ar
    26    12    13   ar
    27    13    14   ar
    28    24    25    1
    29    25    26    1
    30    32    33   ar
    31    33    34   ar
    32    34    35   ar
    33    35    36   ar
    34    36    37   ar
    35    37    28   ar
    36    36    31   ar
    37    26    21    1
    38     7     2   ar
    39    14    10   ar
    40    14     6    1
    41    16    18    1
    42    16    19    1
@<TRIPOS>MOLECULE
*****
 37 42 0 0 0
SMALL
GASTEIGER

@<TRIPOS>ATOM
      1 C          62.3321   84.8548   16.1039 C.3     1  UNL1        0.0468
      2 C          63.0216   84.1456   14.9761 C.ar    1  UNL1        0.0146
      3 C          63.9833   83.0319   15.2669 C.ar    1  UNL1       -0.0011
      4 C          64.6727   82.3228   14.1392 C.ar    1  UNL1        0.0014
      5 C          64.4004   82.7275   12.7207 C.ar    1  UNL1        0.0206
      6 C          63.4387   83.8412   12.4299 C.ar    1  UNL1        0.0989
      7 C          62.7493   84.5503   13.5576 C.ar    1  UNL1        0.1511
      8 O          61.7875   85.6641   13.2669 O.3     1  UNL1       -0.4678
      9 C          61.5152   86.0688   11.8484 C.3     1  UNL1        0.2510
     10 C          62.2047   85.3596   10.7207 C.ar    1  UNL1        0.1087
     11 C          62.1365   85.5367    9.2328 C.ar    1  UNL1        0.1514
     12 N          63.0562   84.5323    8.6039 N.ar    1  UNL1       -0.2192
     13 C          63.6927   83.7346    9.7032 C.ar    1  UNL1        0.1828
     14 N          63.1664   84.2459   11.0114 N.ar    1  UNL1       -0.2851
     15 C          61.2963   86.5416    8.5020 C.2     1  UNL1        0.2618
     16 N          60.4338   86.1057    7.3547 N.am    1  UNL1       -0.3240
     17 O          61.3184   87.9825    8.9184 O.2     1  UNL1       -0.2687
     18 H          60.4193   85.1600    7.0814 H       1  UNL1        0.1453
     19 H          59.8823   86.7652    6.8751 H       1  UNL1        0.1453
     20 C          63.0222   85.9806   16.8155 C.3     1  UNL1        0.0770
     21 N          64.3340   89.6236   14.5226 N.pl3   1  UNL1       -0.3046
     22 C          63.4488   89.7723   15.7243 C.3     1  UNL1        0.1081
     23 C          63.0115   88.5580   16.4886 C.3     1  UNL1        0.0938
     24 N          63.4595   87.1949   16.0512 N.3     1  UNL1       -0.2695
     25 C          64.3448   87.0462   14.8494 C.3     1  UNL1        0.0938
     26 C          64.7820   88.2605   14.0851 C.3     1  UNL1        0.1081
     27 C          69.0980   94.3676   15.9539 C.3     1  UNL1        0.0521
     28 C          68.0163   93.4852   15.4050 C.ar    1  UNL1        0.0593
     29 C          67.5790   92.2709   16.1693 C.ar    1  UNL1        0.0148
     30 C          66.4974   91.3885   15.6204 C.ar    1  UNL1        0.0039
     31 C          65.8529   91.7204   14.3072 C.ar    1  UNL1        0.0310
     32 C          64.7713   90.8379   13.7583 C.ar    1  UNL1        0.0493
     33 C          64.1268   91.1699   12.4450 C.ar    1  UNL1        0.0146
     34 C          64.5641   92.3842   11.6807 C.ar    1  UNL1        0.0028
     35 C          65.6458   93.2667   12.2297 C.ar    1  UNL1        0.0192
     36 C          66.2902   92.9348   13.5428 C.ar    1  UNL1        0.0821
     37 N          67.3719   93.8172   14.0918 N.ar    1  UNL1       -0.2496
@<TRIPOS>BOND
     1    27    28    1
     2    28    29   ar
     3    29    30   ar
     4    30    31   ar
     5    31    32   ar
     6    32    21    1
     7    21    22    1
     8    22    23    1
     9    23    24    1
    10    24    20    1
    11    20     1    1
    12     1     2    1
    13     2     3   ar
    14     3     4   ar
    15     4     5   ar
    16     5     6   ar
    17     6     7   ar
    18     7     8    1
    19     8     9    1
    20     9    10    1
    21    10    11   ar
    22    11    15    1
    23    15    16   am
    24    15    17    2
    25    11    12   ar
    26    12    13   ar
    27    13    14   ar
    28    24    25    1
    29    25    26    1
    30    32    33   ar
    31    33    34   ar
    32    34    35   ar
    33    35    36   ar
    34    36    37   ar
    35    37    28   ar
    36    36    31   ar
    37    26    21    1
    38     7     2   ar
    39    14    10   ar
    40    14     6    1
    41    16    18    1
    42    16    19    1
@<TRIPOS>MOLECULE
*****
 37 42 0 0 0
SMALL
GASTEIGER

@<TRIPOS>ATOM
      1 C          60.3353   89.4489    6.5636 C.3     1  UNL1        0.0468
      2 C          59.6500   90.4387    5.6686 C.ar    1  UNL1        0.0146
      3 C          58.1797   90.6942    5.8200 C.ar    1  UNL1       -0.0011
      4 C          57.4945   91.6839    4.9251 C.ar    1  UNL1        0.0014
      5 C          58.2795   92.4181    3.8789 C.ar    1  UNL1        0.0206
      6 C          59.7498   92.1626    3.7275 C.ar    1  UNL1        0.0989
      7 C          60.4350   91.1729    4.6224 C.ar    1  UNL1        0.1511
      8 O          61.9054   90.9174    4.4710 O.3     1  UNL1       -0.4678
      9 C          62.6904   91.6516    3.4248 C.3     1  UNL1        0.2510
     10 C          62.0051   92.6413    2.5299 C.ar    1  UNL1        0.1087
     11 C          62.5143   93.5089    1.4172 C.ar    1  UNL1        0.1514
     12 N          61.3586   94.3007    0.8809 N.ar    1  UNL1       -0.2192
     13 C          60.1353   93.9224    1.6621 C.ar    1  UNL1        0.1828
     14 N          60.5348   92.8968    2.6812 N.ar    1  UNL1       -0.2851
     15 C          63.9304   93.5735    0.9270 C.2     1  UNL1        0.2618
     16 N          65.0645   93.5762    1.9087 N.am    1  UNL1       -0.3240
     17 O          64.2125   93.6353   -0.5449 O.2     1  UNL1       -0.2687
     18 H          64.8794   93.5356    2.8748 H       1  UNL1        0.1453
     19 H          65.9940   93.6185    1.5870 H       1  UNL1        0.1453
     20 C          59.6672   88.9913    7.8262 C.3     1  UNL1        0.0770
     21 N          62.1522   87.5901   11.3063 N.pl3   1  UNL1       -0.3046
     22 C          62.4283   88.9229   10.6760 C.3     1  UNL1        0.1081
     23 C          61.6000   89.3900    9.5159 C.3     1  UNL1        0.0938
     24 N          60.4955   88.5243    8.9862 N.3     1  UNL1       -0.2695
     25 C          60.2194   87.1914    9.6166 C.3     1  UNL1        0.0938
     26 C          61.0477   86.7244   10.7766 C.3     1  UNL1        0.1081
     27 C          63.7716   81.2519   13.4169 C.3     1  UNL1        0.0521
     28 C          63.5738   82.7197   13.1792 C.ar    1  UNL1        0.0593
     29 C          62.7455   83.1867   12.0192 C.ar    1  UNL1        0.0148
     30 C          62.5477   84.6545   11.7816 C.ar    1  UNL1        0.0039
     31 C          63.1783   85.6553   12.7040 C.ar    1  UNL1        0.0310
     32 C          62.9805   87.1231   12.4664 C.ar    1  UNL1        0.0493
     33 C          63.6111   88.1239   13.3889 C.ar    1  UNL1        0.0146
     34 C          64.4394   87.6568   14.5489 C.ar    1  UNL1        0.0028
     35 C          64.6372   86.1890   14.7865 C.ar    1  UNL1        0.0192
     36 C          64.0066   85.1883   13.8641 C.ar    1  UNL1        0.0821
     37 N          64.2044   83.7205   14.1017 N.ar    1  UNL1       -0.2496
@<TRIPOS>BOND
     1    27    28    1
     2    28    29   ar
     3    29    30   ar
     4    30    31   ar
     5    31    32   ar
     6    32    21    1
     7    21    22    1
     8    22    23    1
     9    23    24    1
    10    24    20    1
    11    20     1    1
    12     1     2    1
    13     2     3   ar
    14     3     4   ar
    15     4     5   ar
    16     5     6   ar
    17     6     7   ar
    18     7     8    1
    19     8     9    1
    20     9    10    1
    21    10    11   ar
    22    11    15    1
    23    15    16   am
    24    15    17    2
    25    11    12   ar
    26    12    13   ar
    27    13    14   ar
    28    24    25    1
    29    25    26    1
    30    32    33   ar
    31    33    34   ar
    32    34    35   ar
    33    35    36   ar
    34    36    37   ar
    35    37    28   ar
    36    36    31   ar
    37    26    21    1
    38     7     2   ar
    39    14    10   ar
    40    14     6    1
    41    16    18    1
    42    16    19    1
@<TRIPOS>MOLECULE
*****
 37 42 0 0 0
SMALL
GASTEIGER

@<TRIPOS>ATOM
      1 C          59.7331   87.2598    8.4615 C.3     1  UNL1        0.0468
      2 C          60.7894   86.2258    8.2060 C.ar    1  UNL1        0.0146
      3 C          61.0839   85.7852    6.8028 C.ar    1  UNL1       -0.0011
      4 C          62.1401   84.7512    6.5474 C.ar    1  UNL1        0.0014
      5 C          62.9019   84.1579    7.6953 C.ar    1  UNL1        0.0206
      6 C          62.6074   84.5985    9.0986 C.ar    1  UNL1        0.0989
      7 C          61.5512   85.6324    9.3539 C.ar    1  UNL1        0.1511
      8 O          61.2567   86.0731   10.7572 O.3     1  UNL1       -0.4678
      9 C          62.0184   85.4797   11.9051 C.3     1  UNL1        0.2510
     10 C          63.0747   84.4457   11.6497 C.ar    1  UNL1        0.1087
     11 C          63.9819   83.6883   12.5734 C.ar    1  UNL1        0.1514
     12 N          64.8371   82.7796   11.7410 N.ar    1  UNL1       -0.2192
     13 C          64.4584   82.9753   10.3029 C.ar    1  UNL1        0.1828
     14 N          63.3691   84.0051   10.2464 N.ar    1  UNL1       -0.2851
     15 C          64.0262   83.8170   14.0672 C.2     1  UNL1        0.2618
     16 N          63.2802   82.8397   14.9266 N.am    1  UNL1       -0.3240
     17 O          64.8163   84.9229   14.7017 O.2     1  UNL1       -0.2687
     18 H          62.7616   82.1138   14.5102 H       1  UNL1        0.1453
     19 H          63.3093   82.9241   15.9070 H       1  UNL1        0.1453
     20 C          60.1265   88.6782    8.7505 C.3     1  UNL1        0.0770
     21 N          62.1369   89.7071   12.6427 N.pl3   1  UNL1       -0.3046
     22 C          60.6397   89.6800   12.5561 C.3     1  UNL1        0.1081
     23 C          59.9695   89.3371   11.2587 C.3     1  UNL1        0.0938
     24 N          60.7966   89.0212   10.0479 N.3     1  UNL1       -0.2695
     25 C          62.2939   89.0482   10.1345 C.3     1  UNL1        0.0938
     26 C          62.9640   89.3912   11.4319 C.3     1  UNL1        0.1081
     27 C          67.3044   94.0206   14.0360 C.3     1  UNL1        0.0521
     28 C          66.1800   93.0279   14.0120 C.ar    1  UNL1        0.0593
     29 C          65.5099   92.6850   12.7147 C.ar    1  UNL1        0.0148
     30 C          64.3856   91.6924   12.6907 C.ar    1  UNL1        0.0039
     31 C          63.9314   91.0427   13.9641 C.ar    1  UNL1        0.0310
     32 C          62.8071   90.0501   13.9401 C.ar    1  UNL1        0.0493
     33 C          62.3529   89.4004   15.2136 C.ar    1  UNL1        0.0146
     34 C          63.0230   89.7434   16.5110 C.ar    1  UNL1        0.0028
     35 C          64.1473   90.7360   16.5349 C.ar    1  UNL1        0.0192
     36 C          64.6015   91.3856   15.2615 C.ar    1  UNL1        0.0821
     37 N          65.7259   92.3783   15.2855 N.ar    1  UNL1       -0.2496
@<TRIPOS>BOND
     1    27    28    1
     2    28    29   ar
     3    29    30   ar
     4    30    31   ar
     5    31    32   ar
     6    32    21    1
     7    21    22    1
     8    22    23    1
     9    23    24    1
    10    24    20    1
    11    20     1    1
    12     1     2    1
    13     2     3   ar
    14     3     4   ar
    15     4     5   ar
    16     5     6   ar
    17     6     7   ar
    18     7     8    1
    19     8     9    1
    20     9    10    1
    21    10    11   ar
    22    11    15    1
    23    15    16   am
    24    15    17    2
    25    11    12   ar
    26    12    13   ar
    27    13    14   ar
    28    24    25    1
    29    25    26    1
    30    32    33   ar
    31    33    34   ar
    32    34    35   ar
    33    35    36   ar
    34    36    37   ar
    35    37    28   ar
    36    36    31   ar
    37    26    21    1
    38     7     2   ar
    39    14    10   ar
    40    14     6    1
    41    16    18    1
    42    16    19    1
@<TRIPOS>MOLECULE
*****
 37 42 0 0 0
SMALL
GASTEIGER

@<TRIPOS>ATOM
      1 C          59.2467   90.1485    7.3895 C.3     1  UNL1        0.0468
      2 C          59.8228   88.9229    8.0345 C.ar    1  UNL1        0.0146
      3 C          59.5302   87.5670    7.4637 C.ar    1  UNL1       -0.0011
      4 C          60.1063   86.3415    8.1088 C.ar    1  UNL1        0.0014
      5 C          60.9750   86.4718    9.3247 C.ar    1  UNL1        0.0206
      6 C          61.2677   87.8277    9.8954 C.ar    1  UNL1        0.0989
      7 C          60.6916   89.0533    9.2504 C.ar    1  UNL1        0.1511
      8 O          60.9842   90.4093    9.8212 O.3     1  UNL1       -0.4678
      9 C          61.8529   90.5396   11.0370 C.3     1  UNL1        0.2510
     10 C          62.4291   89.3140   11.6821 C.ar    1  UNL1        0.1087
     11 C          63.3128   89.1317   12.8803 C.ar    1  UNL1        0.1514
     12 N          63.5664   87.6631   13.0500 N.ar    1  UNL1       -0.2192
     13 C          62.8393   86.9378   11.9567 C.ar    1  UNL1        0.1828
     14 N          62.1364   87.9581   11.1113 N.ar    1  UNL1       -0.2851
     15 C          63.8489   90.2259   13.7551 C.2     1  UNL1        0.2618
     16 N          63.1485   90.5736   15.0352 N.am    1  UNL1       -0.3240
     17 O          65.0852   90.9724   13.3499 O.2     1  UNL1       -0.2687
     18 H          62.3371   90.0837   15.3012 H       1  UNL1        0.1453
     19 H          63.5004   91.2918   15.6094 H       1  UNL1        0.1453
     20 C          58.8846   90.1301    5.9340 C.3     1  UNL1        0.0770
     21 N          61.3424   92.4642    2.9741 N.pl3   1  UNL1       -0.3046
     22 C          59.8907   92.7896    3.1654 C.3     1  UNL1        0.1081
     23 C          59.0714   92.0115    4.1520 C.3     1  UNL1        0.0938
     24 N          59.7038   90.9081    4.9473 N.3     1  UNL1       -0.2695
     25 C          61.1556   90.5828    4.7560 C.3     1  UNL1        0.0938
     26 C          61.9749   91.3608    3.7694 C.3     1  UNL1        0.1081
     27 C          60.2176   93.9277   -3.6473 C.3     1  UNL1        0.0521
     28 C          60.7037   93.7563   -2.2386 C.ar    1  UNL1        0.0593
     29 C          59.8844   92.9783   -1.2520 C.ar    1  UNL1        0.0148
     30 C          60.3704   92.8069    0.1567 C.ar    1  UNL1        0.0039
     31 C          61.6757   93.4136    0.5788 C.ar    1  UNL1        0.0310
     32 C          62.1617   93.2422    1.9875 C.ar    1  UNL1        0.0493
     33 C          63.4670   93.8489    2.4095 C.ar    1  UNL1        0.0146
     34 C          64.2863   94.6270    1.4229 C.ar    1  UNL1        0.0028
     35 C          63.8003   94.7983    0.0142 C.ar    1  UNL1        0.0192
     36 C          62.4950   94.1917   -0.4079 C.ar    1  UNL1        0.0821
     37 N          62.0090   94.3630   -1.8166 N.ar    1  UNL1       -0.2496
@<TRIPOS>BOND
     1    27    28    1
     2    28    29   ar
     3    29    30   ar
     4    30    31   ar
     5    31    32   ar
     6    32    21    1
     7    21    22    1
     8    22    23    1
     9    23    24    1
    10    24    20    1
    11    20     1    1
    12     1     2    1
    13     2     3   ar
    14     3     4   ar
    15     4     5   ar
    16     5     6   ar
    17     6     7   ar
    18     7     8    1
    19     8     9    1
    20     9    10    1
    21    10    11   ar
    22    11    15    1
    23    15    16   am
    24    15    17    2
    25    11    12   ar
    26    12    13   ar
    27    13    14   ar
    28    24    25    1
    29    25    26    1
    30    32    33   ar
    31    33    34   ar
    32    34    35   ar
    33    35    36   ar
    34    36    37   ar
    35    37    28   ar
    36    36    31   ar
    37    26    21    1
    38     7     2   ar
    39    14    10   ar
    40    14     6    1
    41    16    18    1
    42    16    19    1
@<TRIPOS>MOLECULE
*****
 37 42 0 0 0
SMALL
GASTEIGER

@<TRIPOS>ATOM
      1 C          62.8600   89.7698   16.9052 C.3     1  UNL1        0.0468
      2 C          63.5679   90.4162   15.7514 C.ar    1  UNL1        0.0146
      3 C          64.8139   91.2167   15.9892 C.ar    1  UNL1       -0.0011
      4 C          65.5217   91.8630   14.8354 C.ar    1  UNL1        0.0014
      5 C          64.9835   91.7088   13.4438 C.ar    1  UNL1        0.0206
      6 C          63.7375   90.9083   13.2060 C.ar    1  UNL1        0.0989
      7 C          63.0297   90.2620   14.3598 C.ar    1  UNL1        0.1511
      8 O          61.7836   89.4614   14.1220 O.3     1  UNL1       -0.4678
      9 C          61.2454   89.3072   12.7304 C.3     1  UNL1        0.2510
     10 C          61.9532   89.9536   11.5766 C.ar    1  UNL1        0.1087
     11 C          61.6613   89.9764   10.1055 C.ar    1  UNL1        0.1514
     12 N          62.7269   90.7911    9.4340 N.ar    1  UNL1       -0.2192
     13 C          63.6774   91.2717   10.4902 C.ar    1  UNL1        0.1828
     14 N          63.1993   90.7541   11.8144 N.ar    1  UNL1       -0.2851
     15 C          60.5065   89.3028    9.4252 C.2     1  UNL1        0.2618
     16 N          60.0727   89.7535    8.0618 N.am    1  UNL1       -0.3240
     17 O          59.7855   88.1787   10.1082 O.2     1  UNL1       -0.2687
     18 H          60.5459   90.4913    7.6135 H       1  UNL1        0.1453
     19 H          59.3148   89.3114    7.6153 H       1  UNL1        0.1453
     20 C          63.2839   88.4113   17.3792 C.3     1  UNL1        0.0770
     21 N          63.3814   84.9533   14.5012 N.pl3   1  UNL1       -0.3046
     22 C          62.4298   84.9375   15.6605 C.3     1  UNL1        0.1081
     23 C          62.3973   86.0902   16.6199 C.3     1  UNL1        0.0938
     24 N          63.3164   87.2586   16.4199 N.3     1  UNL1       -0.2695
     25 C          64.2680   87.2744   15.2604 C.3     1  UNL1        0.0938
     26 C          64.3005   86.1218   14.3011 C.3     1  UNL1        0.1081
     27 C          62.7505   84.7743    7.6587 C.3     1  UNL1        0.0521
     28 C          62.9164   84.5309    9.1295 C.ar    1  UNL1        0.0593
     29 C          62.8839   85.6836   10.0888 C.ar    1  UNL1        0.0148
     30 C          63.0497   85.4402   11.5596 C.ar    1  UNL1        0.0039
     31 C          63.2481   84.0441   12.0711 C.ar    1  UNL1        0.0310
     32 C          63.4139   83.8007   13.5418 C.ar    1  UNL1        0.0493
     33 C          63.6123   82.4046   14.0533 C.ar    1  UNL1        0.0146
     34 C          63.6448   81.2519   13.0940 C.ar    1  UNL1        0.0028
     35 C          63.4790   81.4953   11.6232 C.ar    1  UNL1        0.0192
     36 C          63.2806   82.8914   11.1117 C.ar    1  UNL1        0.0821
     37 N          63.1147   83.1348    9.6409 N.ar    1  UNL1       -0.2496
@<TRIPOS>BOND
     1    27    28    1
     2    28    29   ar
     3    29    30   ar
     4    30    31   ar
     5    31    32   ar
     6    32    21    1
     7    21    22    1
     8    22    23    1
     9    23    24    1
    10    24    20    1
    11    20     1    1
    12     1     2    1
    13     2     3   ar
    14     3     4   ar
    15     4     5   ar
    16     5     6   ar
    17     6     7   ar
    18     7     8    1
    19     8     9    1
    20     9    10    1
    21    10    11   ar
    22    11    15    1
    23    15    16   am
    24    15    17    2
    25    11    12   ar
    26    12    13   ar
    27    13    14   ar
    28    24    25    1
    29    25    26    1
    30    32    33   ar
    31    33    34   ar
    32    34    35   ar
    33    35    36   ar
    34    36    37   ar
    35    37    28   ar
    36    36    31   ar
    37    26    21    1
    38     7     2   ar
    39    14    10   ar
    40    14     6    1
    41    16    18    1
    42    16    19    1
