@<TRIPOS>MOLECULE
*****
 35 39 0 0 0
SMALL
GASTEIGER

@<TRIPOS>ATOM
      1 C          64.3938   86.4205   15.1937 C.ar    1  UNL1        0.1488
      2 C          63.5127   86.2367   16.3936 C.ar    1  UNL1        0.0390
      3 C          62.9457   87.4334   17.0981 C.ar    1  UNL1        0.0417
      4 C          63.2598   88.8139   16.6027 C.ar    1  UNL1        0.1640
      5 N          62.8487   90.1723   17.0884 N.ar    1  UNL1       -0.2234
      6 C          63.4757   91.1957   16.1886 C.ar    1  UNL1        0.1198
      7 C          64.2744   90.4697   15.1469 C.ar    1  UNL1        0.1066
      8 N          64.1409   88.9978   15.4028 N.ar    1  UNL1       -0.2095
      9 N          64.7079   87.8011   14.6983 N.ar    1  UNL1       -0.1489
     10 C          65.0673   91.1044   14.0430 C.ar    1  UNL1        0.0577
     11 C          64.4176   91.3900   12.7215 C.ar    1  UNL1        0.1049
     12 N          65.2105   92.0246   11.6176 N.ar    1  UNL1       -0.2119
     13 C          66.6530   92.3736   11.8352 C.ar    1  UNL1        0.2218
     14 N          67.3026   92.0880   13.1567 N.ar    1  UNL1       -0.2119
     15 C          66.5097   91.4534   14.2606 C.ar    1  UNL1        0.1049
     16 N          67.4459   93.0083   10.7313 N.pl3   1  UNL1       -0.2662
     17 H          68.2755   92.5835   10.4140 H       1  UNL1        0.1565
     18 C          66.9749   94.2901   10.1108 C.ar    1  UNL1        0.1620
     19 N          66.1676   95.2622   10.9189 N.ar    1  UNL1       -0.2267
     20 C          65.6965   96.5441   10.2985 C.ar    1  UNL1        0.1005
     21 C          66.0329   96.8538    8.8699 C.ar    1  UNL1        0.0231
     22 C          66.8403   95.8816    8.0616 C.ar    1  UNL1        0.0341
     23 C          67.3113   94.5998    8.6822 C.ar    1  UNL1        0.1717
     24 F          68.1186   93.6276    7.8741 F       1  UNL1       -0.2012
     25 N          64.9608   85.2238   14.4891 N.pl3   1  UNL1       -0.3184
     26 H          65.8990   85.2271   14.1906 H       1  UNL1        0.1482
     27 N          61.5116   80.4170   13.4904 N.3     1  UNL1       -0.3222
     28 C          62.3739   81.6187   13.7401 C.3     1  UNL1        0.0509
     29 C          61.9833   82.6172   14.7891 C.3     1  UNL1        0.0172
     30 C          62.8456   83.8189   15.0388 C.3     1  UNL1        0.0209
     31 C          64.0985   84.0221   14.2395 C.3     1  UNL1        0.0705
     32 C          64.4891   83.0236   13.1904 C.3     1  UNL1        0.0209
     33 C          63.6268   81.8219   12.9408 C.3     1  UNL1        0.0172
     34 H          60.7078   80.4391   14.1180 H       1  UNL1        0.1188
     35 H          62.0525   79.5692   13.6604 H       1  UNL1        0.1188
@<TRIPOS>BOND
     1    28    27    1
     2    28    29    1
     3    29    30    1
     4    30    31    1
     5    31    25    1
     6    25     1    1
     7     1     2   ar
     8     2     3   ar
     9     3     4   ar
    10     4     5   ar
    11     5     6   ar
    12     6     7   ar
    13     7    10    1
    14    10    11   ar
    15    11    12   ar
    16    12    13   ar
    17    13    16    1
    18    16    18    1
    19    18    19   ar
    20    19    20   ar
    21    20    21   ar
    22    21    22   ar
    23    22    23   ar
    24    23    24    1
    25    13    14   ar
    26    14    15   ar
    27     7     8   ar
    28     8     9   ar
    29    31    32    1
    30    32    33    1
    31    33    28    1
    32     9     1   ar
    33     8     4   ar
    34    15    10   ar
    35    23    18   ar
    36    27    34    1
    37    27    35    1
    38    25    26    1
    39    16    17    1
@<TRIPOS>MOLECULE
*****
 35 39 0 0 0
SMALL
GASTEIGER

@<TRIPOS>ATOM
      1 C          63.5331   83.8235   10.7571 C.ar    1  UNL1        0.1488
      2 C          63.5146   82.3369   10.9559 C.ar    1  UNL1        0.0390
      3 C          63.5460   81.7652   12.3423 C.ar    1  UNL1        0.0417
      4 C          63.5960   82.6802   13.5299 C.ar    1  UNL1        0.1640
      5 N          63.6350   82.4092   15.0048 N.ar    1  UNL1       -0.2234
      6 C          63.6777   83.7284   15.7174 C.ar    1  UNL1        0.1198
      7 C          63.6650   84.8146   14.6830 C.ar    1  UNL1        0.1066
      8 N          63.6146   84.1668   13.3311 N.ar    1  UNL1       -0.2095
      9 N          63.5831   84.7384   11.9446 N.ar    1  UNL1       -0.1489
     10 C          63.6972   86.2898   14.9531 C.ar    1  UNL1        0.0577
     11 C          63.2838   86.8156   16.2957 C.ar    1  UNL1        0.1049
     12 N          63.3160   88.2907   16.5658 N.ar    1  UNL1       -0.2119
     13 C          63.7615   89.2401   15.4933 C.ar    1  UNL1        0.2218
     14 N          64.1749   88.7142   14.1507 N.ar    1  UNL1       -0.2119
     15 C          64.1427   87.2391   13.8806 C.ar    1  UNL1        0.1049
     16 N          63.7937   90.7152   15.7634 N.pl3   1  UNL1       -0.2662
     17 H          63.2329   91.0974   16.4767 H       1  UNL1        0.1565
     18 C          64.6803   91.6080   14.9469 C.ar    1  UNL1        0.1620
     19 N          64.5131   91.6718   13.4576 N.ar    1  UNL1       -0.2267
     20 C          65.3997   92.5647   12.6409 C.ar    1  UNL1        0.1005
     21 C          66.4534   93.3936   13.3136 C.ar    1  UNL1        0.0231
     22 C          66.6206   93.3298   14.8030 C.ar    1  UNL1        0.0341
     23 C          65.7340   92.4370   15.6195 C.ar    1  UNL1        0.1717
     24 F          65.9011   92.3731   17.1088 F       1  UNL1       -0.2012
     25 N          63.5017   84.3952    9.3706 N.pl3   1  UNL1       -0.3184
     26 H          64.2736   84.2759    8.7713 H       1  UNL1        0.1482
     27 N          58.6715   87.4093    7.4773 N.3     1  UNL1       -0.3222
     28 C          59.8791   86.6558    7.9507 C.3     1  UNL1        0.0509
     29 C          60.5823   85.7083    7.0247 C.3     1  UNL1        0.0172
     30 C          61.7899   84.9547    7.4980 C.3     1  UNL1        0.0209
     31 C          62.2941   85.1487    8.8973 C.3     1  UNL1        0.0705
     32 C          61.5908   86.0964    9.8233 C.3     1  UNL1        0.0209
     33 C          60.3833   86.8499    9.3500 C.3     1  UNL1        0.0172
     34 H          58.4715   87.1576    6.5094 H       1  UNL1        0.1188
     35 H          58.8509   88.4116    7.5378 H       1  UNL1        0.1188
@<TRIPOS>BOND
     1    28    27    1
     2    28    29    1
     3    29    30    1
     4    30    31    1
     5    31    25    1
     6    25     1    1
     7     1     2   ar
     8     2     3   ar
     9     3     4   ar
    10     4     5   ar
    11     5     6   ar
    12     6     7   ar
    13     7    10    1
    14    10    11   ar
    15    11    12   ar
    16    12    13   ar
    17    13    16    1
    18    16    18    1
    19    18    19   ar
    20    19    20   ar
    21    20    21   ar
    22    21    22   ar
    23    22    23   ar
    24    23    24    1
    25    13    14   ar
    26    14    15   ar
    27     7     8   ar
    28     8     9   ar
    29    31    32    1
    30    32    33    1
    31    33    28    1
    32     9     1   ar
    33     8     4   ar
    34    15    10   ar
    35    23    18   ar
    36    27    34    1
    37    27    35    1
    38    25    26    1
    39    16    17    1
@<TRIPOS>MOLECULE
*****
 35 39 0 0 0
SMALL
GASTEIGER

@<TRIPOS>ATOM
      1 C          63.6847   85.2536   13.9101 C.ar    1  UNL1        0.1488
      2 C          63.3305   84.5572   15.1906 C.ar    1  UNL1        0.0390
      3 C          63.1152   85.3542   16.4430 C.ar    1  UNL1        0.0417
      4 C          63.2541   86.8475   16.4148 C.ar    1  UNL1        0.1640
      5 N          63.1027   87.8899   17.4829 N.ar    1  UNL1       -0.2234
      6 C          63.3634   89.2305   16.8624 C.ar    1  UNL1        0.1198
      7 C          63.6758   89.0165   15.4109 C.ar    1  UNL1        0.1066
      8 N          63.6083   87.5438   15.1344 N.ar    1  UNL1       -0.2095
      9 N          63.8236   86.7468   13.8820 N.ar    1  UNL1       -0.1489
     10 C          63.9991   90.0874   14.4115 C.ar    1  UNL1        0.0577
     11 C          64.9988   91.1529   14.7509 C.ar    1  UNL1        0.1049
     12 N          65.3220   92.2237   13.7514 N.ar    1  UNL1       -0.2119
     13 C          64.6456   92.2291   12.4127 C.ar    1  UNL1        0.2218
     14 N          63.6458   91.1635   12.0734 N.ar    1  UNL1       -0.2119
     15 C          63.3226   90.0927   13.0728 C.ar    1  UNL1        0.1049
     16 N          64.9688   93.2999   11.4133 N.pl3   1  UNL1       -0.2662
     17 H          64.3344   94.0368   11.2588 H       1  UNL1        0.1565
     18 C          66.2586   93.2480   10.6491 C.ar    1  UNL1        0.1620
     19 N          67.1330   92.0324   10.7355 N.ar    1  UNL1       -0.2267
     20 C          68.4228   91.9805    9.9714 C.ar    1  UNL1        0.1005
     21 C          68.8380   93.1442    9.1210 C.ar    1  UNL1        0.0231
     22 C          67.9635   94.3599    9.0346 C.ar    1  UNL1        0.0341
     23 C          66.6738   94.4118    9.7987 C.ar    1  UNL1        0.1717
     24 F          65.7992   95.6274    9.7124 F       1  UNL1       -0.2012
     25 N          63.9000   84.4566   12.6577 N.pl3   1  UNL1       -0.3184
     26 H          64.5145   83.6874   12.6632 H       1  UNL1        0.1482
     27 N          61.0159   85.9562    7.6146 N.3     1  UNL1       -0.3222
     28 C          61.7369   85.5813    8.8754 C.3     1  UNL1        0.0509
     29 C          62.9606   84.7162    8.8106 C.3     1  UNL1        0.0172
     30 C          63.6816   84.3413   10.0714 C.3     1  UNL1        0.0209
     31 C          63.1790   84.8315   11.3969 C.3     1  UNL1        0.0705
     32 C          61.9552   85.6965   11.4617 C.3     1  UNL1        0.0209
     33 C          61.2342   86.0714   10.2009 C.3     1  UNL1        0.0172
     34 H          61.4915   85.5395    6.8142 H       1  UNL1        0.1188
     35 H          61.0095   86.9713    7.5156 H       1  UNL1        0.1188
@<TRIPOS>BOND
     1    28    27    1
     2    28    29    1
     3    29    30    1
     4    30    31    1
     5    31    25    1
     6    25     1    1
     7     1     2   ar
     8     2     3   ar
     9     3     4   ar
    10     4     5   ar
    11     5     6   ar
    12     6     7   ar
    13     7    10    1
    14    10    11   ar
    15    11    12   ar
    16    12    13   ar
    17    13    16    1
    18    16    18    1
    19    18    19   ar
    20    19    20   ar
    21    20    21   ar
    22    21    22   ar
    23    22    23   ar
    24    23    24    1
    25    13    14   ar
    26    14    15   ar
    27     7     8   ar
    28     8     9   ar
    29    31    32    1
    30    32    33    1
    31    33    28    1
    32     9     1   ar
    33     8     4   ar
    34    15    10   ar
    35    23    18   ar
    36    27    34    1
    37    27    35    1
    38    25    26    1
    39    16    17    1
@<TRIPOS>MOLECULE
*****
 35 39 0 0 0
SMALL
GASTEIGER

@<TRIPOS>ATOM
      1 C          62.9851   84.8437    8.9670 C.ar    1  UNL1        0.1488
      2 C          62.0966   84.6786    7.7699 C.ar    1  UNL1        0.0390
      3 C          61.1084   85.7501    7.4158 C.ar    1  UNL1        0.0417
      4 C          61.0089   86.9868    8.2589 C.ar    1  UNL1        0.1640
      5 N          60.1370   88.2032    8.1574 N.ar    1  UNL1       -0.2234
      6 C          60.4867   89.1201    9.2919 C.ar    1  UNL1        0.1198
      7 C          61.5747   88.4703   10.0945 C.ar    1  UNL1        0.1066
      8 N          61.8974   87.1519    9.4560 N.ar    1  UNL1       -0.2095
      9 N          62.8855   86.0804    9.8101 N.ar    1  UNL1       -0.1489
     10 C          62.2257   89.0391   11.3203 C.ar    1  UNL1        0.0577
     11 C          62.2041   90.5193   11.5627 C.ar    1  UNL1        0.1049
     12 N          62.8551   91.0881   12.7885 N.ar    1  UNL1       -0.2119
     13 C          63.5278   90.1769   13.7719 C.ar    1  UNL1        0.2218
     14 N          63.5495   88.6968   13.5294 N.ar    1  UNL1       -0.2119
     15 C          62.8985   88.1279   12.3036 C.ar    1  UNL1        0.1049
     16 N          64.1788   90.7457   14.9977 N.pl3   1  UNL1       -0.2662
     17 H          63.7451   90.6474   15.8760 H       1  UNL1        0.1565
     18 C          65.4907   91.4643   14.8852 C.ar    1  UNL1        0.1620
     19 N          66.3488   91.2730   13.6700 N.ar    1  UNL1       -0.2267
     20 C          67.6607   91.9916   13.5575 C.ar    1  UNL1        0.1005
     21 C          68.1143   92.9015   14.6603 C.ar    1  UNL1        0.0231
     22 C          67.2562   93.0929   15.8756 C.ar    1  UNL1        0.0341
     23 C          65.9443   92.3743   15.9881 C.ar    1  UNL1        0.1717
     24 F          65.0861   92.5656   17.2033 F       1  UNL1       -0.2012
     25 N          63.9733   83.7722    9.3211 N.pl3   1  UNL1       -0.3184
     26 H          64.7400   83.5946    8.7296 H       1  UNL1        0.1482
     27 N          63.2534   80.5680   14.3425 N.3     1  UNL1       -0.3222
     28 C          63.4334   81.3690   13.0872 C.3     1  UNL1        0.0509
     29 C          64.0898   82.7165   13.1450 C.3     1  UNL1        0.0172
     30 C          64.2698   83.5176   11.8896 C.3     1  UNL1        0.0209
     31 C          63.7934   82.9711   10.5765 C.3     1  UNL1        0.0705
     32 C          63.1370   81.6236   10.5187 C.3     1  UNL1        0.0209
     33 C          62.9570   80.8225   11.7740 C.3     1  UNL1        0.0172
     34 H          63.6319   81.0875   15.1345 H       1  UNL1        0.1188
     35 H          63.7458   79.6793   14.2523 H       1  UNL1        0.1188
@<TRIPOS>BOND
     1    28    27    1
     2    28    29    1
     3    29    30    1
     4    30    31    1
     5    31    25    1
     6    25     1    1
     7     1     2   ar
     8     2     3   ar
     9     3     4   ar
    10     4     5   ar
    11     5     6   ar
    12     6     7   ar
    13     7    10    1
    14    10    11   ar
    15    11    12   ar
    16    12    13   ar
    17    13    16    1
    18    16    18    1
    19    18    19   ar
    20    19    20   ar
    21    20    21   ar
    22    21    22   ar
    23    22    23   ar
    24    23    24    1
    25    13    14   ar
    26    14    15   ar
    27     7     8   ar
    28     8     9   ar
    29    31    32    1
    30    32    33    1
    31    33    28    1
    32     9     1   ar
    33     8     4   ar
    34    15    10   ar
    35    23    18   ar
    36    27    34    1
    37    27    35    1
    38    25    26    1
    39    16    17    1
@<TRIPOS>MOLECULE
*****
 35 39 0 0 0
SMALL
GASTEIGER

@<TRIPOS>ATOM
      1 C          62.6772   86.0494   11.9022 C.ar    1  UNL1        0.1488
      2 C          61.5171   85.4848   11.1371 C.ar    1  UNL1        0.0390
      3 C          60.6864   86.3797   10.2660 C.ar    1  UNL1        0.0417
      4 C          61.0157   87.8393   10.1599 C.ar    1  UNL1        0.1640
      5 N          60.3819   88.9576    9.3869 N.ar    1  UNL1       -0.2234
      6 C          61.1502   90.2134    9.6742 C.ar    1  UNL1        0.1198
      7 C          62.2589   89.8712   10.6249 C.ar    1  UNL1        0.1066
      8 N          62.1758   88.4039   10.9250 N.ar    1  UNL1       -0.2095
      9 N          63.0065   87.5090   11.7962 N.ar    1  UNL1       -0.1489
     10 C          63.2727   90.8282   11.1782 C.ar    1  UNL1        0.0577
     11 C          63.5656   90.8430   12.6493 C.ar    1  UNL1        0.1049
     12 N          64.5794   91.8000   13.2027 N.ar    1  UNL1       -0.2119
     13 C          65.3004   92.7423   12.2850 C.ar    1  UNL1        0.2218
     14 N          65.0076   92.7276   10.8140 N.ar    1  UNL1       -0.2119
     15 C          63.9937   91.7706   10.2606 C.ar    1  UNL1        0.1049
     16 N          66.3143   93.6994   12.8384 N.pl3   1  UNL1       -0.2662
     17 H          66.3631   94.6195   12.4918 H       1  UNL1        0.1565
     18 C          67.2537   93.2544   13.9199 C.ar    1  UNL1        0.1620
     19 N          67.1582   93.8563   15.2905 N.ar    1  UNL1       -0.2267
     20 C          68.0976   93.4115   16.3720 C.ar    1  UNL1        0.1005
     21 C          69.1323   92.3647   16.0829 C.ar    1  UNL1        0.0231
     22 C          69.2278   91.7628   14.7122 C.ar    1  UNL1        0.0341
     23 C          68.2884   92.2077   13.6307 C.ar    1  UNL1        0.1717
     24 F          68.3837   91.6058   12.2601 F       1  UNL1       -0.2012
     25 N          63.5080   85.1545   12.7734 N.pl3   1  UNL1       -0.3184
     26 H          64.2992   85.5141   13.2360 H       1  UNL1        0.1482
     27 N          62.0093   79.3830   13.4393 N.3     1  UNL1       -0.3222
     28 C          62.3840   80.8258   13.2729 C.3     1  UNL1        0.0509
     29 C          63.1343   81.2698   12.0523 C.3     1  UNL1        0.0172
     30 C          63.5090   82.7127   11.8858 C.3     1  UNL1        0.0209
     31 C          63.1333   83.7116   12.9399 C.3     1  UNL1        0.0705
     32 C          62.3830   83.2676   14.1605 C.3     1  UNL1        0.0209
     33 C          62.0083   81.8247   14.3270 C.3     1  UNL1        0.0172
     34 H          62.3412   78.8506   12.6351 H       1  UNL1        0.1188
     35 H          60.9948   79.3007   13.5064 H       1  UNL1        0.1188
@<TRIPOS>BOND
     1    28    27    1
     2    28    29    1
     3    29    30    1
     4    30    31    1
     5    31    25    1
     6    25     1    1
     7     1     2   ar
     8     2     3   ar
     9     3     4   ar
    10     4     5   ar
    11     5     6   ar
    12     6     7   ar
    13     7    10    1
    14    10    11   ar
    15    11    12   ar
    16    12    13   ar
    17    13    16    1
    18    16    18    1
    19    18    19   ar
    20    19    20   ar
    21    20    21   ar
    22    21    22   ar
    23    22    23   ar
    24    23    24    1
    25    13    14   ar
    26    14    15   ar
    27     7     8   ar
    28     8     9   ar
    29    31    32    1
    30    32    33    1
    31    33    28    1
    32     9     1   ar
    33     8     4   ar
    34    15    10   ar
    35    23    18   ar
    36    27    34    1
    37    27    35    1
    38    25    26    1
    39    16    17    1
@<TRIPOS>MOLECULE
*****
 35 39 0 0 0
SMALL
GASTEIGER

@<TRIPOS>ATOM
      1 C          63.8641   86.1778   14.7642 C.ar    1  UNL1        0.1488
      2 C          63.0976   85.9417   16.0317 C.ar    1  UNL1        0.0390
      3 C          62.7645   87.0939   16.9325 C.ar    1  UNL1        0.0417
      4 C          63.1980   88.4823   16.5657 C.ar    1  UNL1        0.1640
      5 N          63.0162   89.8044   17.2507 N.ar    1  UNL1       -0.2234
      6 C          63.6703   90.8576   16.4065 C.ar    1  UNL1        0.1198
      7 C          64.2564   90.1864   15.1998 C.ar    1  UNL1        0.1066
      8 N          63.9645   88.7184   15.2982 N.ar    1  UNL1       -0.2095
      9 N          64.2975   87.5662   14.3975 N.ar    1  UNL1       -0.1489
     10 C          65.0033   90.8643   14.0895 C.ar    1  UNL1        0.0577
     11 C          64.3041   91.1855   12.8019 C.ar    1  UNL1        0.1049
     12 N          65.0510   91.8634   11.6917 N.ar    1  UNL1       -0.2119
     13 C          66.4971   92.2200   11.8690 C.ar    1  UNL1        0.2218
     14 N          67.1964   91.8988   13.1566 N.ar    1  UNL1       -0.2119
     15 C          66.4495   91.2209   14.2668 C.ar    1  UNL1        0.1049
     16 N          67.2440   92.8979   10.7587 N.pl3   1  UNL1       -0.2662
     17 H          68.0494   92.4778   10.3790 H       1  UNL1        0.1565
     18 C          66.7639   94.2158   10.2271 C.ar    1  UNL1        0.1620
     19 N          65.8986   95.0973   11.0779 N.ar    1  UNL1       -0.2267
     20 C          65.4184   96.4152   10.5463 C.ar    1  UNL1        0.1005
     21 C          65.8037   96.8515    9.1639 C.ar    1  UNL1        0.0231
     22 C          66.6691   95.9699    8.3129 C.ar    1  UNL1        0.0341
     23 C          67.1492   94.6520    8.8446 C.ar    1  UNL1        0.1717
     24 F          68.0145   93.7704    7.9938 F       1  UNL1       -0.2012
     25 N          64.1972   85.0256   13.8634 N.pl3   1  UNL1       -0.3184
     26 H          64.7424   84.2785   14.2009 H       1  UNL1        0.1482
     27 N          62.2070   84.9695    8.2034 N.3     1  UNL1       -0.3222
     28 C          62.7045   84.9835    9.6184 C.3     1  UNL1        0.0509
     29 C          62.3558   86.1267   10.5247 C.3     1  UNL1        0.0172
     30 C          62.8534   86.1408   11.9398 C.3     1  UNL1        0.0209
     31 C          63.6997   85.0116   12.4484 C.3     1  UNL1        0.0705
     32 C          64.0484   83.8683   11.5420 C.3     1  UNL1        0.0209
     33 C          63.5508   83.8543   10.1270 C.3     1  UNL1        0.0172
     34 H          61.6518   85.8075    8.0299 H       1  UNL1        0.1188
     35 H          61.6294   84.1422    8.0543 H       1  UNL1        0.1188
@<TRIPOS>BOND
     1    28    27    1
     2    28    29    1
     3    29    30    1
     4    30    31    1
     5    31    25    1
     6    25     1    1
     7     1     2   ar
     8     2     3   ar
     9     3     4   ar
    10     4     5   ar
    11     5     6   ar
    12     6     7   ar
    13     7    10    1
    14    10    11   ar
    15    11    12   ar
    16    12    13   ar
    17    13    16    1
    18    16    18    1
    19    18    19   ar
    20    19    20   ar
    21    20    21   ar
    22    21    22   ar
    23    22    23   ar
    24    23    24    1
    25    13    14   ar
    26    14    15   ar
    27     7     8   ar
    28     8     9   ar
    29    31    32    1
    30    32    33    1
    31    33    28    1
    32     9     1   ar
    33     8     4   ar
    34    15    10   ar
    35    23    18   ar
    36    27    34    1
    37    27    35    1
    38    25    26    1
    39    16    17    1
@<TRIPOS>MOLECULE
*****
 35 39 0 0 0
SMALL
GASTEIGER

@<TRIPOS>ATOM
      1 C          64.2541   85.4107   14.2717 C.ar    1  UNL1        0.1488
      2 C          63.6690   84.6851   15.4469 C.ar    1  UNL1        0.0390
      3 C          63.1472   85.4581   16.6216 C.ar    1  UNL1        0.0417
      4 C          63.2104   86.9568   16.6212 C.ar    1  UNL1        0.1640
      5 N          62.7777   87.9799   17.6292 N.ar    1  UNL1       -0.2234
      6 C          63.0954   89.3379   17.0770 C.ar    1  UNL1        0.1198
      7 C          63.7244   89.1540   15.7277 C.ar    1  UNL1        0.1066
      8 N          63.7955   87.6824   15.4460 N.ar    1  UNL1       -0.2095
      9 N          64.3174   86.9094   14.2713 N.ar    1  UNL1       -0.1489
     10 C          64.1991   90.2494   14.8195 C.ar    1  UNL1        0.0577
     11 C          63.9344   90.1688   13.3453 C.ar    1  UNL1        0.1049
     12 N          64.4091   91.2642   12.4371 N.ar    1  UNL1       -0.2119
     13 C          65.1484   92.4402   13.0031 C.ar    1  UNL1        0.2218
     14 N          65.4131   92.5208   14.4774 N.ar    1  UNL1       -0.2119
     15 C          64.9384   91.4254   15.3855 C.ar    1  UNL1        0.1049
     16 N          65.6230   93.5356   12.0949 N.pl3   1  UNL1       -0.2662
     17 H          65.2746   94.4501   12.2027 H       1  UNL1        0.1565
     18 C          66.6286   93.2378   11.0225 C.ar    1  UNL1        0.1620
     19 N          66.5733   93.9746    9.7171 N.ar    1  UNL1       -0.2267
     20 C          67.5788   93.6768    8.6446 C.ar    1  UNL1        0.1005
     21 C          68.6396   92.6422    8.8775 C.ar    1  UNL1        0.0231
     22 C          68.6950   91.9053   10.1829 C.ar    1  UNL1        0.0341
     23 C          67.6894   92.2032   11.2554 C.ar    1  UNL1        0.1717
     24 F          67.7446   91.4664   12.5608 F       1  UNL1       -0.2012
     25 N          64.7761   84.6377   13.0969 N.pl3   1  UNL1       -0.3184
     26 H          65.5017   85.0102   12.5456 H       1  UNL1        0.1482
     27 N          62.4416   79.2752   11.7579 N.3     1  UNL1       -0.3222
     28 C          63.0252   80.6158   12.0926 C.3     1  UNL1        0.0509
     29 C          63.2946   81.6099   11.0022 C.3     1  UNL1        0.0172
     30 C          63.8782   82.9506   11.3369 C.3     1  UNL1        0.0209
     31 C          64.1925   83.2971   12.7621 C.3     1  UNL1        0.0705
     32 C          63.9231   82.3028   13.8526 C.3     1  UNL1        0.0209
     33 C          63.3395   80.9622   13.5178 C.3     1  UNL1        0.0172
     34 H          62.2927   79.2110   10.7508 H       1  UNL1        0.1188
     35 H          61.5506   79.1619   12.2412 H       1  UNL1        0.1188
@<TRIPOS>BOND
     1    28    27    1
     2    28    29    1
     3    29    30    1
     4    30    31    1
     5    31    25    1
     6    25     1    1
     7     1     2   ar
     8     2     3   ar
     9     3     4   ar
    10     4     5   ar
    11     5     6   ar
    12     6     7   ar
    13     7    10    1
    14    10    11   ar
    15    11    12   ar
    16    12    13   ar
    17    13    16    1
    18    16    18    1
    19    18    19   ar
    20    19    20   ar
    21    20    21   ar
    22    21    22   ar
    23    22    23   ar
    24    23    24    1
    25    13    14   ar
    26    14    15   ar
    27     7     8   ar
    28     8     9   ar
    29    31    32    1
    30    32    33    1
    31    33    28    1
    32     9     1   ar
    33     8     4   ar
    34    15    10   ar
    35    23    18   ar
    36    27    34    1
    37    27    35    1
    38    25    26    1
    39    16    17    1
@<TRIPOS>MOLECULE
*****
 35 39 0 0 0
SMALL
GASTEIGER

@<TRIPOS>ATOM
      1 C          62.9640   85.2579   12.1864 C.ar    1  UNL1        0.1488
      2 C          62.6305   84.2060   13.2024 C.ar    1  UNL1        0.0390
      3 C          62.7368   84.5167   14.6660 C.ar    1  UNL1        0.0417
      4 C          63.1766   85.8792   15.1135 C.ar    1  UNL1        0.1640
      5 N          63.3734   86.4728   16.4770 N.ar    1  UNL1       -0.2234
      6 C          63.8285   87.8915   16.3035 C.ar    1  UNL1        0.1198
      7 C          63.9130   88.1747   14.8329 C.ar    1  UNL1        0.1066
      8 N          63.5101   86.9310   14.0975 N.ar    1  UNL1       -0.2095
      9 N          63.4038   86.6203   12.6339 N.ar    1  UNL1       -0.1489
     10 C          64.3276   89.4735   14.2075 C.ar    1  UNL1        0.0577
     11 C          65.3732   90.3233   14.8667 C.ar    1  UNL1        0.1049
     12 N          65.7878   91.6221   14.2413 N.ar    1  UNL1       -0.2119
     13 C          65.1569   92.0712   12.9567 C.ar    1  UNL1        0.2218
     14 N          64.1112   91.2214   12.2975 N.ar    1  UNL1       -0.2119
     15 C          63.6966   89.9226   12.9230 C.ar    1  UNL1        0.1049
     16 N          65.5714   93.3701   12.3313 N.pl3   1  UNL1       -0.2662
     17 H          65.2599   94.2221   12.7137 H       1  UNL1        0.1565
     18 C          66.4607   93.3707   11.1233 C.ar    1  UNL1        0.1620
     19 N          66.1758   94.3026    9.9830 N.ar    1  UNL1       -0.2267
     20 C          67.0650   94.3033    8.7749 C.ar    1  UNL1        0.1005
     21 C          68.2390   93.3721    8.7072 C.ar    1  UNL1        0.0231
     22 C          68.5239   92.4402    9.8476 C.ar    1  UNL1        0.0341
     23 C          67.6347   92.4395   11.0557 C.ar    1  UNL1        0.1717
     24 F          67.9194   91.5077   12.1961 F       1  UNL1       -0.2012
     25 N          62.8577   84.9472   10.7227 N.pl3   1  UNL1       -0.3184
     26 H          63.4625   84.2863   10.3145 H       1  UNL1        0.1482
     27 N          58.7466   87.7330    7.3555 N.3     1  UNL1       -0.3222
     28 C          59.7744   87.0366    8.1973 C.3     1  UNL1        0.0509
     29 C          60.7548   86.0974    7.5596 C.3     1  UNL1        0.0172
     30 C          61.7826   85.4009    8.4014 C.3     1  UNL1        0.0209
     31 C          61.8300   85.6437    9.8809 C.3     1  UNL1        0.0705
     32 C          60.8495   86.5829   10.5186 C.3     1  UNL1        0.0209
     33 C          59.8217   87.2793    9.6768 C.3     1  UNL1        0.0172
     34 H          58.8590   87.4533    6.3811 H       1  UNL1        0.1188
     35 H          58.8687   88.7425    7.4358 H       1  UNL1        0.1188
@<TRIPOS>BOND
     1    28    27    1
     2    28    29    1
     3    29    30    1
     4    30    31    1
     5    31    25    1
     6    25     1    1
     7     1     2   ar
     8     2     3   ar
     9     3     4   ar
    10     4     5   ar
    11     5     6   ar
    12     6     7   ar
    13     7    10    1
    14    10    11   ar
    15    11    12   ar
    16    12    13   ar
    17    13    16    1
    18    16    18    1
    19    18    19   ar
    20    19    20   ar
    21    20    21   ar
    22    21    22   ar
    23    22    23   ar
    24    23    24    1
    25    13    14   ar
    26    14    15   ar
    27     7     8   ar
    28     8     9   ar
    29    31    32    1
    30    32    33    1
    31    33    28    1
    32     9     1   ar
    33     8     4   ar
    34    15    10   ar
    35    23    18   ar
    36    27    34    1
    37    27    35    1
    38    25    26    1
    39    16    17    1
