@<TRIPOS>MOLECULE
*****
 30 33 0 0 0
SMALL
GASTEIGER

@<TRIPOS>ATOM
      1 C          63.6389   90.7278   12.3319 C.ar    1  UNL1        0.0805
      2 N          64.3268   91.3925   11.1764 N.ar    1  UNL1       -0.2278
      3 C          65.4365   92.2407   11.7233 C.ar    1  UNL1        0.1630
      4 S          65.4346   92.1002   13.2167 S.2     1  UNL1       -0.0473
      5 C          64.3235   91.1652   13.5928 C.ar    1  UNL1        0.0991
      6 N          66.3823   93.0816   10.9181 N.pl3   1  UNL1       -0.2830
      7 C          66.1908   94.5677   10.8481 C.3     1  UNL1        0.1247
      8 C          67.1365   95.4087   10.0429 C.3     1  UNL1        0.1636
      9 O          68.2738   94.7636    9.3078 O.3     1  UNL1       -0.3501
     10 C          68.4653   93.2775    9.3778 C.3     1  UNL1        0.1636
     11 C          67.5195   92.4365   10.1830 C.3     1  UNL1        0.1247
     12 C          63.9608   90.7419   14.9854 C.2     1  UNL1        0.2500
     13 N          64.0449   89.2959   15.3756 N.am    1  UNL1       -0.3249
     14 O          63.5140   91.7645   15.9877 O.2     1  UNL1       -0.2698
     15 H          64.3381   88.6248   14.7178 H       1  UNL1        0.1453
     16 H          63.8068   89.0181   16.2896 H       1  UNL1        0.1453
     17 C          62.4714   89.7904   12.2421 C.3     1  UNL1        0.1319
     18 C          63.0116   85.0957   11.6916 C.3     1  UNL1        0.0222
     19 C          62.2348   86.0415   10.8245 C.3     1  UNL1        0.0842
     20 C          61.4637   85.6756    9.5910 C.3     1  UNL1        0.0478
     21 C          60.8449   86.9272    9.0427 C.ar    1  UNL1       -0.0046
     22 C          59.9778   87.1765    7.8445 C.ar    1  UNL1        0.0267
     23 C          59.4994   88.5653    7.5409 C.ar    1  UNL1        0.1399
     24 F          58.6322   88.8147    6.3425 F       1  UNL1       -0.2042
     25 C          59.8881   89.7048    8.4355 C.ar    1  UNL1        0.0309
     26 C          60.7552   89.4555    9.6338 C.ar    1  UNL1        0.0169
     27 C          61.2336   88.0667    9.9374 C.ar    1  UNL1        0.0500
     28 N          62.0926   87.5193   11.0385 N.am    1  UNL1       -0.2599
     29 C          62.7023   88.3108   12.1574 C.2     1  UNL1        0.2353
     30 O          63.5430   87.6225   13.1916 O.2     1  UNL1       -0.2741
@<TRIPOS>BOND
     1    18    19    1
     2    19    20    1
     3    20    21    1
     4    21    22   ar
     5    22    23   ar
     6    23    24    1
     7    23    25   ar
     8    25    26   ar
     9    26    27   ar
    10    27    28    1
    11    28    29   am
    12    29    30    2
    13    29    17    1
    14    17     1    1
    15     1     2   ar
    16     2     3   ar
    17     3     6    1
    18     6     7    1
    19     7     8    1
    20     8     9    1
    21     9    10    1
    22    10    11    1
    23     3     4   ar
    24     4     5   ar
    25     5    12    1
    26    12    13   am
    27    12    14    2
    28    28    19    1
    29     5     1   ar
    30    27    21   ar
    31    11     6    1
    32    13    15    1
    33    13    16    1
@<TRIPOS>MOLECULE
*****
 30 33 0 0 0
SMALL
GASTEIGER

@<TRIPOS>ATOM
      1 C          63.3835   90.6680   12.5901 C.ar    1  UNL1        0.0805
      2 N          64.0414   91.3486   11.4265 N.ar    1  UNL1       -0.2278
      3 C          65.1923   92.1548   11.9512 C.ar    1  UNL1        0.1630
      4 S          65.2458   91.9725   13.4392 S.2     1  UNL1       -0.0473
      5 C          64.1278   91.0536   13.8340 C.ar    1  UNL1        0.0991
      6 N          66.1260   92.9957   11.1319 N.pl3   1  UNL1       -0.2830
      7 C          65.9913   94.4896   11.1385 C.3     1  UNL1        0.1247
      8 C          66.9249   95.3305   10.3192 C.3     1  UNL1        0.1636
      9 O          67.9932   94.6774    9.4932 O.3     1  UNL1       -0.3501
     10 C          68.1278   93.1834    9.4866 C.3     1  UNL1        0.1636
     11 C          67.1942   92.3426   10.3059 C.3     1  UNL1        0.1247
     12 C          63.8101   90.6000   15.2280 C.2     1  UNL1        0.2500
     13 N          63.6402   89.1386   15.5208 N.am    1  UNL1       -0.3249
     14 O          63.6621   91.6077   16.3292 O.2     1  UNL1       -0.2698
     15 H          63.7373   88.4773   14.7980 H       1  UNL1        0.1453
     16 H          63.4317   88.8409   16.4357 H       1  UNL1        0.1453
     17 C          62.1907   89.7611   12.5218 C.3     1  UNL1        0.1319
     18 C          60.2063   88.5577    8.3686 C.3     1  UNL1        0.0222
     19 C          60.9540   87.6741    9.3226 C.3     1  UNL1        0.0842
     20 C          61.2229   86.2095    9.1417 C.3     1  UNL1        0.0478
     21 C          61.9992   85.7302   10.3324 C.ar    1  UNL1       -0.0046
     22 C          62.5412   84.3808   10.7002 C.ar    1  UNL1        0.0267
     23 C          63.2942   84.1998   11.9848 C.ar    1  UNL1        0.1399
     24 F          63.8363   82.8503   12.3526 F       1  UNL1       -0.2042
     25 C          63.5051   85.3681   12.9015 C.ar    1  UNL1        0.0309
     26 C          62.9630   86.7175   12.5338 C.ar    1  UNL1        0.0169
     27 C          62.2101   86.8985   11.2492 C.ar    1  UNL1        0.0500
     28 N          61.5641   88.0999   10.6251 N.am    1  UNL1       -0.2599
     29 C          61.5337   89.4841   11.2022 C.2     1  UNL1        0.2353
     30 O          60.8461   90.5914   10.4596 O.2     1  UNL1       -0.2741
@<TRIPOS>BOND
     1    18    19    1
     2    19    20    1
     3    20    21    1
     4    21    22   ar
     5    22    23   ar
     6    23    24    1
     7    23    25   ar
     8    25    26   ar
     9    26    27   ar
    10    27    28    1
    11    28    29   am
    12    29    30    2
    13    29    17    1
    14    17     1    1
    15     1     2   ar
    16     2     3   ar
    17     3     6    1
    18     6     7    1
    19     7     8    1
    20     8     9    1
    21     9    10    1
    22    10    11    1
    23     3     4   ar
    24     4     5   ar
    25     5    12    1
    26    12    13   am
    27    12    14    2
    28    28    19    1
    29     5     1   ar
    30    27    21   ar
    31    11     6    1
    32    13    15    1
    33    13    16    1
@<TRIPOS>MOLECULE
*****
 30 33 0 0 0
SMALL
GASTEIGER

@<TRIPOS>ATOM
      1 C          64.8793   91.7599   12.7847 C.ar    1  UNL1        0.0805
      2 N          65.0864   92.4178   11.4526 N.ar    1  UNL1       -0.2278
      3 C          66.0774   93.5291   11.6335 C.ar    1  UNL1        0.1630
      4 S          66.4829   93.5581   13.0774 S.2     1  UNL1       -0.0473
      5 C          65.7424   92.4647   13.7889 C.ar    1  UNL1        0.0991
      6 N          66.5756   94.4498   10.5593 N.pl3   1  UNL1       -0.2830
      7 C          66.4532   95.9352   10.7283 C.3     1  UNL1        0.1247
      8 C          66.9514   96.8560    9.6541 C.3     1  UNL1        0.1636
      9 O          67.5719   96.2913    8.4107 O.3     1  UNL1       -0.3501
     10 C          67.6943   94.8058    8.2416 C.3     1  UNL1        0.1636
     11 C          67.1961   93.8851    9.3159 C.3     1  UNL1        0.1247
     12 C          65.8467   92.1340   15.2483 C.2     1  UNL1        0.2500
     13 N          67.1948   91.9767   15.8871 N.am    1  UNL1       -0.3249
     14 O          64.6031   91.9607   16.0688 O.2     1  UNL1       -0.2698
     15 H          68.0110   92.0904   15.3486 H       1  UNL1        0.1453
     16 H          67.2632   91.7597   16.8450 H       1  UNL1        0.1453
     17 C          63.9690   90.6008   13.0635 C.3     1  UNL1        0.1319
     18 C          61.4096   88.4227    9.6959 C.3     1  UNL1        0.0222
     19 C          62.1089   87.8007   10.8681 C.3     1  UNL1        0.0842
     20 C          62.1331   86.3396   11.2067 C.3     1  UNL1        0.0478
     21 C          62.9460   86.1665   12.4554 C.ar    1  UNL1       -0.0046
     22 C          63.3125   84.9508   13.2540 C.ar    1  UNL1        0.0267
     23 C          64.1572   85.0893   14.4857 C.ar    1  UNL1        0.1399
     24 F          64.5237   83.8735   15.2844 F       1  UNL1       -0.2042
     25 C          64.6355   86.4434   14.9189 C.ar    1  UNL1        0.0309
     26 C          64.2690   87.6591   14.1203 C.ar    1  UNL1        0.0169
     27 C          63.4242   87.5206   12.8886 C.ar    1  UNL1        0.0500
     28 N          62.9069   88.5306   11.9076 N.am    1  UNL1       -0.2599
     29 C          63.1457   90.0106   11.9573 C.2     1  UNL1        0.2353
     30 O          62.5611   90.9006   10.9008 O.2     1  UNL1       -0.2741
@<TRIPOS>BOND
     1    18    19    1
     2    19    20    1
     3    20    21    1
     4    21    22   ar
     5    22    23   ar
     6    23    24    1
     7    23    25   ar
     8    25    26   ar
     9    26    27   ar
    10    27    28    1
    11    28    29   am
    12    29    30    2
    13    29    17    1
    14    17     1    1
    15     1     2   ar
    16     2     3   ar
    17     3     6    1
    18     6     7    1
    19     7     8    1
    20     8     9    1
    21     9    10    1
    22    10    11    1
    23     3     4   ar
    24     4     5   ar
    25     5    12    1
    26    12    13   am
    27    12    14    2
    28    28    19    1
    29     5     1   ar
    30    27    21   ar
    31    11     6    1
    32    13    15    1
    33    13    16    1
@<TRIPOS>MOLECULE
*****
 30 33 0 0 0
SMALL
GASTEIGER

@<TRIPOS>ATOM
      1 C          63.3287   90.5740   12.6141 C.ar    1  UNL1        0.0805
      2 N          63.9334   91.3280   11.4670 N.ar    1  UNL1       -0.2278
      3 C          65.1097   92.0993   11.9880 C.ar    1  UNL1        0.1630
      4 S          65.2321   91.8219   13.4571 S.2     1  UNL1       -0.0473
      5 C          64.1313   90.8792   13.8440 C.ar    1  UNL1        0.0991
      6 N          66.0063   92.9913   11.1815 N.pl3   1  UNL1       -0.2830
      7 C          66.9662   92.3955   10.1948 C.3     1  UNL1        0.1247
      8 C          67.8628   93.2875    9.3883 C.3     1  UNL1        0.1636
      9 O          67.7996   94.7753    9.5686 O.3     1  UNL1       -0.3501
     10 C          66.8397   95.3710   10.5554 C.3     1  UNL1        0.1636
     11 C          65.9430   94.4790   11.3619 C.3     1  UNL1        0.1247
     12 C          63.8777   90.3370   15.2194 C.2     1  UNL1        0.2500
     13 N          63.8993   91.2569   16.4041 N.am    1  UNL1       -0.3249
     14 O          63.6024   88.8749   15.4102 O.2     1  UNL1       -0.2698
     15 H          64.0800   92.2166   16.2788 H       1  UNL1        0.1453
     16 H          63.7329   90.9011   17.3068 H       1  UNL1        0.1453
     17 C          62.1316   89.6729   12.5436 C.3     1  UNL1        0.1319
     18 C          60.0625   88.5907    8.3984 C.3     1  UNL1        0.0222
     19 C          60.8199   87.6774    9.3160 C.3     1  UNL1        0.0842
     20 C          61.0733   86.2158    9.0934 C.3     1  UNL1        0.0478
     21 C          61.8669   85.7003   10.2572 C.ar    1  UNL1       -0.0046
     22 C          62.4043   84.3379   10.5809 C.ar    1  UNL1        0.0267
     23 C          63.1788   84.1184   11.8466 C.ar    1  UNL1        0.1399
     24 F          63.7163   82.7559   12.1703 F       1  UNL1       -0.2042
     25 C          63.4160   85.2615   12.7885 C.ar    1  UNL1        0.0309
     26 C          62.8787   86.6239   12.4648 C.ar    1  UNL1        0.0169
     27 C          62.1041   86.8434   11.1991 C.ar    1  UNL1        0.0500
     28 N          61.4570   88.0652   10.6174 N.am    1  UNL1       -0.2599
     29 C          61.4485   89.4346   11.2297 C.2     1  UNL1        0.2353
     30 O          60.7569   90.5657   10.5279 O.2     1  UNL1       -0.2741
@<TRIPOS>BOND
     1    18    19    1
     2    19    20    1
     3    20    21    1
     4    21    22   ar
     5    22    23   ar
     6    23    24    1
     7    23    25   ar
     8    25    26   ar
     9    26    27   ar
    10    27    28    1
    11    28    29   am
    12    29    30    2
    13    29    17    1
    14    17     1    1
    15     1     2   ar
    16     2     3   ar
    17     3     6    1
    18     6     7    1
    19     7     8    1
    20     8     9    1
    21     9    10    1
    22    10    11    1
    23     3     4   ar
    24     4     5   ar
    25     5    12    1
    26    12    13   am
    27    12    14    2
    28    28    19    1
    29     5     1   ar
    30    27    21   ar
    31    11     6    1
    32    13    15    1
    33    13    16    1
@<TRIPOS>MOLECULE
*****
 30 33 0 0 0
SMALL
GASTEIGER

@<TRIPOS>ATOM
      1 C          63.8005   90.8706   12.5163 C.ar    1  UNL1        0.0805
      2 N          64.4332   91.4414   11.2818 N.ar    1  UNL1       -0.2278
      3 C          65.5126   92.3905   11.7107 C.ar    1  UNL1        0.1630
      4 S          65.5472   92.4063   13.2102 S.2     1  UNL1       -0.0473
      5 C          64.4890   91.4669   13.7081 C.ar    1  UNL1        0.0991
      6 N          66.4016   93.1844   10.7999 N.pl3   1  UNL1       -0.2830
      7 C          67.5090   92.5033   10.0517 C.3     1  UNL1        0.1247
      8 C          68.3979   93.2972    9.1410 C.3     1  UNL1        0.1636
      9 O          68.1795   94.7723    8.9784 O.3     1  UNL1       -0.3501
     10 C          67.0721   95.4534    9.7267 C.3     1  UNL1        0.1636
     11 C          66.1832   94.6595   10.6374 C.3     1  UNL1        0.1247
     12 C          64.1745   91.1752   15.1455 C.2     1  UNL1        0.2500
     13 N          64.9569   91.8458   16.2355 N.am    1  UNL1       -0.3249
     14 O          63.0776   90.2128   15.4928 O.2     1  UNL1       -0.2698
     15 H          65.6768   92.4775   16.0075 H       1  UNL1        0.1453
     16 H          64.7505   91.6544   17.1789 H       1  UNL1        0.1453
     17 C          62.6767   89.8778   12.5526 C.3     1  UNL1        0.1319
     18 C          63.4300   85.1802   12.5227 C.3     1  UNL1        0.0222
     19 C          62.6089   85.9877   11.5615 C.3     1  UNL1        0.0842
     20 C          61.8527   85.4524   10.3818 C.3     1  UNL1        0.0478
     21 C          61.1762   86.6060    9.7025 C.ar    1  UNL1       -0.0046
     22 C          60.2961   86.6811    8.4902 C.ar    1  UNL1        0.0267
     23 C          59.7540   88.0044    8.0378 C.ar    1  UNL1        0.1399
     24 F          58.8739   88.0795    6.8254 F       1  UNL1       -0.2042
     25 C          60.0920   89.2528    8.7977 C.ar    1  UNL1        0.0309
     26 C          60.9722   89.1777   10.0100 C.ar    1  UNL1        0.0169
     27 C          61.5143   87.8543   10.4624 C.ar    1  UNL1        0.0500
     28 N          62.3997   87.4722   11.6113 N.am    1  UNL1       -0.2599
     29 C          62.9749   88.4099   12.6310 C.2     1  UNL1        0.2353
     30 O          63.8484   87.8797   13.7292 O.2     1  UNL1       -0.2741
@<TRIPOS>BOND
     1    18    19    1
     2    19    20    1
     3    20    21    1
     4    21    22   ar
     5    22    23   ar
     6    23    24    1
     7    23    25   ar
     8    25    26   ar
     9    26    27   ar
    10    27    28    1
    11    28    29   am
    12    29    30    2
    13    29    17    1
    14    17     1    1
    15     1     2   ar
    16     2     3   ar
    17     3     6    1
    18     6     7    1
    19     7     8    1
    20     8     9    1
    21     9    10    1
    22    10    11    1
    23     3     4   ar
    24     4     5   ar
    25     5    12    1
    26    12    13   am
    27    12    14    2
    28    28    19    1
    29     5     1   ar
    30    27    21   ar
    31    11     6    1
    32    13    15    1
    33    13    16    1
@<TRIPOS>MOLECULE
*****
 30 33 0 0 0
SMALL
GASTEIGER

@<TRIPOS>ATOM
      1 C          63.8569   87.1462   14.8369 C.ar    1  UNL1        0.0805
      2 N          63.9287   85.9924   13.8811 N.ar    1  UNL1       -0.2278
      3 C          63.4006   84.7761   14.5823 C.ar    1  UNL1        0.1630
      4 S          63.0025   85.1782   15.9715 S.2     1  UNL1       -0.0473
      5 C          63.2845   86.6431   16.1288 C.ar    1  UNL1        0.0991
      6 N          63.2901   83.3994   13.9971 N.pl3   1  UNL1       -0.2830
      7 C          62.2922   82.4265   14.5519 C.3     1  UNL1        0.1247
      8 C          62.1816   81.0498   13.9667 C.3     1  UNL1        0.1636
      9 O          63.0690   80.6460   12.8268 O.3     1  UNL1       -0.3501
     10 C          64.0669   81.6188   12.2721 C.3     1  UNL1        0.1636
     11 C          64.1775   82.9955   12.8572 C.3     1  UNL1        0.1247
     12 C          63.0375   87.4611   17.3616 C.2     1  UNL1        0.2500
     13 N          63.0965   88.9584   17.2925 N.am    1  UNL1       -0.3249
     14 O          62.7315   86.7819   18.6635 O.2     1  UNL1       -0.2698
     15 H          63.2973   89.4042   16.4380 H       1  UNL1        0.1453
     16 H          62.9343   89.4953   18.1016 H       1  UNL1        0.1453
     17 C          64.2828   88.5558   14.5509 C.3     1  UNL1        0.1319
     18 C          63.1698   90.9228   10.5767 C.3     1  UNL1        0.0222
     19 C          64.1007   91.3493   11.6728 C.3     1  UNL1        0.0842
     20 C          64.8743   92.6335   11.7227 C.3     1  UNL1        0.0478
     21 C          65.6732   92.6444   12.9922 C.ar    1  UNL1       -0.0046
     22 C          66.6192   93.6525   13.5741 C.ar    1  UNL1        0.0267
     23 C          67.2855   93.3831   14.8907 C.ar    1  UNL1        0.1399
     24 F          68.2317   94.3913   15.4726 F       1  UNL1       -0.2042
     25 C          67.0058   92.1056   15.6254 C.ar    1  UNL1        0.0309
     26 C          66.0597   91.0975   15.0435 C.ar    1  UNL1        0.0169
     27 C          65.3934   91.3669   13.7269 C.ar    1  UNL1        0.0500
     28 N          64.4216   90.5665   12.9115 N.am    1  UNL1       -0.2599
     29 C          63.8679   89.2198   13.2715 C.2     1  UNL1        0.2353
     30 O          62.8990   88.5369   12.3521 O.2     1  UNL1       -0.2741
@<TRIPOS>BOND
     1    18    19    1
     2    19    20    1
     3    20    21    1
     4    21    22   ar
     5    22    23   ar
     6    23    24    1
     7    23    25   ar
     8    25    26   ar
     9    26    27   ar
    10    27    28    1
    11    28    29   am
    12    29    30    2
    13    29    17    1
    14    17     1    1
    15     1     2   ar
    16     2     3   ar
    17     3     6    1
    18     6     7    1
    19     7     8    1
    20     8     9    1
    21     9    10    1
    22    10    11    1
    23     3     4   ar
    24     4     5   ar
    25     5    12    1
    26    12    13   am
    27    12    14    2
    28    28    19    1
    29     5     1   ar
    30    27    21   ar
    31    11     6    1
    32    13    15    1
    33    13    16    1
@<TRIPOS>MOLECULE
*****
 30 33 0 0 0
SMALL
GASTEIGER

@<TRIPOS>ATOM
      1 C          62.0824   88.8020   11.5943 C.ar    1  UNL1        0.0805
      2 N          63.3727   89.0645   12.3128 N.ar    1  UNL1       -0.2278
      3 C          63.5827   90.5489   12.3610 C.ar    1  UNL1        0.1630
      4 S          62.4222   91.2040   11.6723 S.2     1  UNL1       -0.0473
      5 C          61.4949   90.1242   11.1985 C.ar    1  UNL1        0.0991
      6 N          64.7485   91.2546   12.9879 N.pl3   1  UNL1       -0.2830
      7 C          65.3056   90.7690   14.2932 C.3     1  UNL1        0.1247
      8 C          66.4714   91.4746   14.9201 C.3     1  UNL1        0.1636
      9 O          67.0802   92.6659   14.2416 O.3     1  UNL1       -0.3501
     10 C          66.5231   93.1515   12.9362 C.3     1  UNL1        0.1636
     11 C          65.3572   92.4458   12.3094 C.3     1  UNL1        0.1247
     12 C          60.2065   90.3306   10.4587 C.2     1  UNL1        0.2500
     13 N          60.0687   89.8508    9.0441 N.am    1  UNL1       -0.3249
     14 O          59.0558   91.0166   11.1334 O.2     1  UNL1       -0.2698
     15 H          60.8240   89.4006    8.6013 H       1  UNL1        0.1453
     16 H          59.2231   89.9862    8.5585 H       1  UNL1        0.1453
     17 C          61.4845   87.4540   11.3199 C.3     1  UNL1        0.1319
     18 C          62.9807   84.7488    7.7035 C.3     1  UNL1        0.0222
     19 C          63.1354   84.4901    9.1729 C.3     1  UNL1        0.0842
     20 C          63.8073   83.3009    9.7928 C.3     1  UNL1        0.0478
     21 C          63.7326   83.4510   11.2834 C.ar    1  UNL1       -0.0046
     22 C          64.2256   82.5860   12.4053 C.ar    1  UNL1        0.0267
     23 C          64.0006   83.0030   13.8285 C.ar    1  UNL1        0.1399
     24 F          64.4936   82.1380   14.9504 F       1  UNL1       -0.2042
     25 C          63.2825   84.2850   14.1298 C.ar    1  UNL1        0.0309
     26 C          62.7894   85.1500   13.0079 C.ar    1  UNL1        0.0169
     27 C          63.0145   84.7330   11.5847 C.ar    1  UNL1        0.0500
     28 N          62.6454   85.3752   10.2803 N.am    1  UNL1       -0.2599
     29 C          61.9146   86.6744   10.1129 C.2     1  UNL1        0.2353
     30 O          61.6140   87.1940    8.7381 O.2     1  UNL1       -0.2741
@<TRIPOS>BOND
     1    18    19    1
     2    19    20    1
     3    20    21    1
     4    21    22   ar
     5    22    23   ar
     6    23    24    1
     7    23    25   ar
     8    25    26   ar
     9    26    27   ar
    10    27    28    1
    11    28    29   am
    12    29    30    2
    13    29    17    1
    14    17     1    1
    15     1     2   ar
    16     2     3   ar
    17     3     6    1
    18     6     7    1
    19     7     8    1
    20     8     9    1
    21     9    10    1
    22    10    11    1
    23     3     4   ar
    24     4     5   ar
    25     5    12    1
    26    12    13   am
    27    12    14    2
    28    28    19    1
    29     5     1   ar
    30    27    21   ar
    31    11     6    1
    32    13    15    1
    33    13    16    1
@<TRIPOS>MOLECULE
*****
 30 33 0 0 0
SMALL
GASTEIGER

@<TRIPOS>ATOM
      1 C          62.3179   88.6033   11.6703 C.ar    1  UNL1        0.0805
      2 N          63.0163   87.3907   12.2106 N.ar    1  UNL1       -0.2278
      3 C          62.4273   86.1819   11.5459 C.ar    1  UNL1        0.1630
      4 S          61.3648   86.6473   10.5948 S.2     1  UNL1       -0.0473
      5 C          61.2972   88.1439   10.6718 C.ar    1  UNL1        0.0991
      6 N          62.8301   84.7577   11.7895 N.pl3   1  UNL1       -0.2830
      7 C          63.3432   83.9191   10.6565 C.3     1  UNL1        0.1247
      8 C          63.7459   82.4949   10.9001 C.3     1  UNL1        0.1636
      9 O          63.6355   81.9092   12.2766 O.3     1  UNL1       -0.3501
     10 C          63.1224   82.7478   13.4095 C.3     1  UNL1        0.1636
     11 C          62.7197   84.1720   13.1660 C.3     1  UNL1        0.1247
     12 C          60.3714   89.0261    9.8877 C.2     1  UNL1        0.2500
     13 N          60.0568   88.7003    8.4577 N.am    1  UNL1       -0.3249
     14 O          59.7603   90.2341   10.5337 O.2     1  UNL1       -0.2698
     15 H          60.4579   87.9074    8.0338 H       1  UNL1        0.1453
     16 H          59.4492   89.2793    7.9431 H       1  UNL1        0.1453
     17 C          62.5920   90.0256   12.0603 C.3     1  UNL1        0.1319
     18 C          64.3500   91.2464   16.3093 C.3     1  UNL1        0.0222
     19 C          64.7880   91.7285   14.9581 C.3     1  UNL1        0.0842
     20 C          65.8893   92.7100   14.6865 C.3     1  UNL1        0.0478
     21 C          65.9835   92.9019   13.2018 C.ar    1  UNL1       -0.0046
     22 C          66.8844   93.7509   12.3547 C.ar    1  UNL1        0.0267
     23 C          66.7421   93.7370   10.8616 C.ar    1  UNL1        0.1399
     24 F          67.6430   94.5860   10.0143 F       1  UNL1       -0.2042
     25 C          65.6990   92.8741   10.2155 C.ar    1  UNL1        0.0309
     26 C          64.7981   92.0251   11.0627 C.ar    1  UNL1        0.0169
     27 C          64.9404   92.0390   12.5558 C.ar    1  UNL1        0.0500
     28 N          64.2015   91.3139   13.6413 N.am    1  UNL1       -0.2599
     29 C          63.0741   90.3442   13.4444 C.2     1  UNL1        0.2353
     30 O          62.4288   89.6932   14.6318 O.2     1  UNL1       -0.2741
@<TRIPOS>BOND
     1    18    19    1
     2    19    20    1
     3    20    21    1
     4    21    22   ar
     5    22    23   ar
     6    23    24    1
     7    23    25   ar
     8    25    26   ar
     9    26    27   ar
    10    27    28    1
    11    28    29   am
    12    29    30    2
    13    29    17    1
    14    17     1    1
    15     1     2   ar
    16     2     3   ar
    17     3     6    1
    18     6     7    1
    19     7     8    1
    20     8     9    1
    21     9    10    1
    22    10    11    1
    23     3     4   ar
    24     4     5   ar
    25     5    12    1
    26    12    13   am
    27    12    14    2
    28    28    19    1
    29     5     1   ar
    30    27    21   ar
    31    11     6    1
    32    13    15    1
    33    13    16    1
@<TRIPOS>MOLECULE
*****
 30 33 0 0 0
SMALL
GASTEIGER

@<TRIPOS>ATOM
      1 C          63.5040   88.4799   12.8064 C.ar    1  UNL1        0.0805
      2 N          62.7570   87.6604   11.7963 N.ar    1  UNL1       -0.2278
      3 C          61.9883   88.5994   10.9147 C.ar    1  UNL1        0.1630
      4 S          62.2601   89.9993   11.3800 S.2     1  UNL1       -0.0473
      5 C          63.1970   89.9254   12.5492 C.ar    1  UNL1        0.0991
      6 N          61.1030   88.2075    9.7690 N.pl3   1  UNL1       -0.2830
      7 C          60.4151   89.2645    8.9569 C.3     1  UNL1        0.1247
      8 C          59.5298   88.8726    7.8112 C.3     1  UNL1        0.1636
      9 O          59.3325   87.4236    7.4775 O.3     1  UNL1       -0.3501
     10 C          60.0205   86.3665    8.2896 C.3     1  UNL1        0.1636
     11 C          60.9057   86.7584    9.4353 C.3     1  UNL1        0.1247
     12 C          63.7326   91.0922   13.3249 C.2     1  UNL1        0.2500
     13 N          63.4727   91.1959   14.7986 N.am    1  UNL1       -0.3249
     14 O          64.5281   92.1552   12.6269 O.2     1  UNL1       -0.2698
     15 H          62.9506   90.4982   15.2567 H       1  UNL1        0.1453
     16 H          63.8243   91.9617   15.3077 H       1  UNL1        0.1453
     17 C          64.4007   87.9474   13.8846 C.3     1  UNL1        0.1319
     18 C          62.5646   86.4719   18.0182 C.3     1  UNL1        0.0222
     19 C          62.8475   85.6553   16.7922 C.3     1  UNL1        0.0842
     20 C          62.5985   84.1845   16.6356 C.3     1  UNL1        0.0478
     21 C          63.0262   83.7863   15.2541 C.ar    1  UNL1       -0.0046
     22 C          63.0145   82.4668   14.5410 C.ar    1  UNL1        0.0267
     23 C          63.5162   82.3721   13.1306 C.ar    1  UNL1        0.1399
     24 F          63.5045   81.0524   12.4174 F       1  UNL1       -0.2042
     25 C          64.0295   83.5969   12.4333 C.ar    1  UNL1        0.0309
     26 C          64.0412   84.9165   13.1464 C.ar    1  UNL1        0.0169
     27 C          63.5395   85.0112   14.5568 C.ar    1  UNL1        0.0500
     28 N          63.4291   86.1663   15.5074 N.am    1  UNL1       -0.2599
     29 C          63.8299   87.5835   15.2231 C.2     1  UNL1        0.2353
     30 O          63.6600   88.6369   16.2774 O.2     1  UNL1       -0.2741
@<TRIPOS>BOND
     1    18    19    1
     2    19    20    1
     3    20    21    1
     4    21    22   ar
     5    22    23   ar
     6    23    24    1
     7    23    25   ar
     8    25    26   ar
     9    26    27   ar
    10    27    28    1
    11    28    29   am
    12    29    30    2
    13    29    17    1
    14    17     1    1
    15     1     2   ar
    16     2     3   ar
    17     3     6    1
    18     6     7    1
    19     7     8    1
    20     8     9    1
    21     9    10    1
    22    10    11    1
    23     3     4   ar
    24     4     5   ar
    25     5    12    1
    26    12    13   am
    27    12    14    2
    28    28    19    1
    29     5     1   ar
    30    27    21   ar
    31    11     6    1
    32    13    15    1
    33    13    16    1
