@<TRIPOS>MOLECULE
*****
 30 32 0 0 0
SMALL
GASTEIGER

@<TRIPOS>ATOM
      1 N          62.2600   89.2758   11.0505 N.3     1  UNL1       -0.1788
      2 H          62.1927   89.8831   10.2338 H       1  UNL1        0.1488
      3 S          63.1093   89.9950   12.0562 S.O2    1  UNL1        0.0622
      4 O          62.6311   91.3112   11.5185 O.2     1  UNL1       -0.1529
      5 O          63.5874   88.6789   12.5938 O.2     1  UNL1       -0.1529
      6 C          63.9585   90.7143   13.0618 C.ar    1  UNL1        0.1452
      7 C          63.6933   90.5416   14.5280 C.ar    1  UNL1        0.0620
      8 N          62.5788   89.6494   14.9886 N.pl3   1  UNL1       -0.3559
      9 C          64.5426   91.2610   15.5337 C.ar    1  UNL1        0.0269
     10 C          65.6570   92.1531   15.0731 C.ar    1  UNL1        0.0598
     11 CL         66.5062   92.8724   16.0787 Cl      1  UNL1       -0.0822
     12 C          65.9222   92.3258   13.6068 C.ar    1  UNL1        0.0242
     13 C          65.0729   91.6065   12.6012 C.ar    1  UNL1        0.0783
     14 CL         65.3381   91.7793   11.1350 Cl      1  UNL1       -0.0808
     15 H          62.0214   89.1773   14.3286 H       1  UNL1        0.1424
     16 H          62.4048   89.5360   15.9509 H       1  UNL1        0.1424
     17 C          60.8602   88.8694   11.4045 C.3     1  UNL1        0.0980
     18 C          59.1175   90.7910   11.5463 C.3     1  UNL1        0.0015
     19 C          59.9983   89.7836   12.2239 C.3     1  UNL1        0.0194
     20 C          60.3221   87.5488   10.9390 C.3     1  UNL1        0.1233
     21 N          61.2137   86.5931   10.2028 N.ar    1  UNL1       -0.3249
     22 C          61.3260   86.4618    8.7128 C.ar    1  UNL1        0.0716
     23 C          62.3312   85.3886    8.4166 C.ar    1  UNL1       -0.0033
     24 C          62.7534   84.9281    7.0529 C.3     1  UNL1        0.0326
     25 C          62.8400   84.8565    9.7235 C.ar    1  UNL1        0.0133
     26 C          63.8430   83.7903   10.0510 C.ar    1  UNL1        0.0012
     27 C          64.1553   83.4687   11.4823 C.ar    1  UNL1        0.0001
     28 C          63.4646   84.2131   12.5863 C.ar    1  UNL1        0.0015
     29 C          62.4617   85.2793   12.2589 C.ar    1  UNL1        0.0172
     30 C          62.1493   85.6010   10.8275 C.ar    1  UNL1        0.0596
@<TRIPOS>BOND
     1    18    19    1
     2    17    19    1
     3    17    20    1
     4    20    21    1
     5    21    22   ar
     6    22    23   ar
     7    23    24    1
     8    23    25   ar
     9    25    26   ar
    10    26    27   ar
    11    27    28   ar
    12    28    29   ar
    13    29    30   ar
    14    17     1    1
    15     1     3    1
    16     3     4    2
    17     3     5    2
    18     3     6    1
    19     6     7   ar
    20     7     8    1
    21     7     9   ar
    22     9    10   ar
    23    10    11    1
    24    10    12   ar
    25    12    13   ar
    26    13    14    1
    27    30    21   ar
    28    13     6   ar
    29    30    25   ar
    30     1     2    1
    31     8    15    1
    32     8    16    1
@<TRIPOS>MOLECULE
*****
 30 32 0 0 0
SMALL
GASTEIGER

@<TRIPOS>ATOM
      1 N          64.1875   86.5525   13.9397 N.3     1  UNL1       -0.1788
      2 H          65.1999   86.6003   13.8251 H       1  UNL1        0.1488
      3 S          63.7930   85.1234   13.7121 S.O2    1  UNL1        0.0622
      4 O          62.5101   85.5781   13.0817 O.2     1  UNL1       -0.1529
      5 O          65.0759   84.6687   14.3425 O.2     1  UNL1       -0.1529
      6 C          63.3983   83.6943   13.4845 C.ar    1  UNL1        0.1452
      7 C          62.6227   82.9542   14.5336 C.ar    1  UNL1        0.0620
      8 N          62.2417   83.6432   15.8103 N.pl3   1  UNL1       -0.3559
      9 C          62.2281   81.5250   14.3058 C.ar    1  UNL1        0.0269
     10 C          62.6090   80.8360   13.0290 C.ar    1  UNL1        0.0598
     11 CL         62.2144   79.4069   12.8014 Cl      1  UNL1       -0.0822
     12 C          63.3847   81.5762   11.9800 C.ar    1  UNL1        0.0242
     13 C          63.7793   83.0053   12.2077 C.ar    1  UNL1        0.0783
     14 CL         64.5549   83.7454   11.1586 Cl      1  UNL1       -0.0808
     15 H          62.5008   84.5811   15.9598 H       1  UNL1        0.1424
     16 H          61.7327   83.1574   16.4989 H       1  UNL1        0.1424
     17 C          63.8675   87.2204   15.2441 C.3     1  UNL1        0.0980
     18 C          62.7761   87.0066   17.5921 C.3     1  UNL1        0.0015
     19 C          63.5243   86.3919   16.4466 C.3     1  UNL1        0.0194
     20 C          63.8906   88.7168   15.3461 C.3     1  UNL1        0.1233
     21 N          63.9180   89.5531   14.1012 N.ar    1  UNL1       -0.3249
     22 C          63.0749   89.3422   12.8786 C.ar    1  UNL1        0.0716
     23 C          63.4292   90.4058   11.8821 C.ar    1  UNL1       -0.0033
     24 C          62.8271   90.5720   10.5183 C.3     1  UNL1        0.0326
     25 C          64.4913   91.2741   12.4888 C.ar    1  UNL1        0.0133
     26 C          65.2223   92.4766   11.9695 C.ar    1  UNL1        0.0012
     27 C          66.2555   93.1520   12.8217 C.ar    1  UNL1        0.0001
     28 C          66.5576   92.6250   14.1932 C.ar    1  UNL1        0.0015
     29 C          65.8265   91.4225   14.7125 C.ar    1  UNL1        0.0172
     30 C          64.7934   90.7471   13.8602 C.ar    1  UNL1        0.0596
@<TRIPOS>BOND
     1    18    19    1
     2    17    19    1
     3    17    20    1
     4    20    21    1
     5    21    22   ar
     6    22    23   ar
     7    23    24    1
     8    23    25   ar
     9    25    26   ar
    10    26    27   ar
    11    27    28   ar
    12    28    29   ar
    13    29    30   ar
    14    17     1    1
    15     1     3    1
    16     3     4    2
    17     3     5    2
    18     3     6    1
    19     6     7   ar
    20     7     8    1
    21     7     9   ar
    22     9    10   ar
    23    10    11    1
    24    10    12   ar
    25    12    13   ar
    26    13    14    1
    27    30    21   ar
    28    13     6   ar
    29    30    25   ar
    30     1     2    1
    31     8    15    1
    32     8    16    1
@<TRIPOS>MOLECULE
*****
 30 32 0 0 0
SMALL
GASTEIGER

@<TRIPOS>ATOM
      1 N          64.2733   86.7647   13.8790 N.3     1  UNL1       -0.1788
      2 H          65.2900   86.7765   13.7981 H       1  UNL1        0.1488
      3 S          63.8440   85.3348   13.7343 S.O2    1  UNL1        0.0622
      4 O          65.0510   84.8942   14.5082 O.2     1  UNL1       -0.1529
      5 O          62.6370   85.7755   12.9604 O.2     1  UNL1       -0.1529
      6 C          63.4147   83.9049   13.5896 C.ar    1  UNL1        0.1452
      7 C          63.9405   83.0750   12.4561 C.ar    1  UNL1        0.0620
      8 N          64.8955   83.6750   11.4673 N.pl3   1  UNL1       -0.3559
      9 C          63.5111   81.6450   12.3115 C.ar    1  UNL1        0.0269
     10 C          62.5560   81.0449   13.3004 C.ar    1  UNL1        0.0598
     11 CL         62.1267   79.6150   13.1557 Cl      1  UNL1       -0.0822
     12 C          62.0303   81.8749   14.4339 C.ar    1  UNL1        0.0242
     13 C          62.4596   83.3048   14.5785 C.ar    1  UNL1        0.0783
     14 CL         61.9338   84.1347   15.7120 Cl      1  UNL1       -0.0808
     15 H          65.1773   84.6135   11.5622 H       1  UNL1        0.1424
     16 H          65.2406   83.1303   10.7234 H       1  UNL1        0.1424
     17 C          63.9291   87.5290   15.1230 C.3     1  UNL1        0.0980
     18 C          62.8308   87.5365   17.4774 C.3     1  UNL1        0.0015
     19 C          63.5038   86.7955   16.3604 C.3     1  UNL1        0.0194
     20 C          64.0103   89.0268   15.1296 C.3     1  UNL1        0.1233
     21 N          63.9490   89.7870   13.8379 N.ar    1  UNL1       -0.3249
     22 C          63.0238   89.5042   12.6916 C.ar    1  UNL1        0.0716
     23 C          63.3051   90.5058   11.6110 C.ar    1  UNL1       -0.0033
     24 C          62.6095   90.5907   10.2847 C.3     1  UNL1        0.0326
     25 C          64.4041   91.4076   12.0895 C.ar    1  UNL1        0.0133
     26 C          65.0939   92.5759   11.4498 C.ar    1  UNL1        0.0012
     27 C          66.1816   93.2999   12.1864 C.ar    1  UNL1        0.0001
     28 C          66.5795   92.8556   13.5627 C.ar    1  UNL1        0.0015
     29 C          65.8898   91.6873   14.2024 C.ar    1  UNL1        0.0172
     30 C          64.8020   90.9633   13.4658 C.ar    1  UNL1        0.0596
@<TRIPOS>BOND
     1    18    19    1
     2    17    19    1
     3    17    20    1
     4    20    21    1
     5    21    22   ar
     6    22    23   ar
     7    23    24    1
     8    23    25   ar
     9    25    26   ar
    10    26    27   ar
    11    27    28   ar
    12    28    29   ar
    13    29    30   ar
    14    17     1    1
    15     1     3    1
    16     3     4    2
    17     3     5    2
    18     3     6    1
    19     6     7   ar
    20     7     8    1
    21     7     9   ar
    22     9    10   ar
    23    10    11    1
    24    10    12   ar
    25    12    13   ar
    26    13    14    1
    27    30    21   ar
    28    13     6   ar
    29    30    25   ar
    30     1     2    1
    31     8    15    1
    32     8    16    1
@<TRIPOS>MOLECULE
*****
 30 32 0 0 0
SMALL
GASTEIGER

@<TRIPOS>ATOM
      1 N          61.6523   89.9540   12.4995 N.3     1  UNL1       -0.1788
      2 H          61.3405   90.8641   12.1605 H       1  UNL1        0.1488
      3 S          61.4484   88.9806   11.3766 S.O2    1  UNL1        0.0622
      4 O          60.2281   88.4435   12.0639 O.2     1  UNL1       -0.1529
      5 O          62.6686   89.5178   10.6892 O.2     1  UNL1       -0.1529
      6 C          61.2444   88.0073   10.2537 C.ar    1  UNL1        0.1452
      7 C          60.4837   88.4231    9.0295 C.ar    1  UNL1        0.0620
      8 N          59.9271   89.8123    8.9282 N.pl3   1  UNL1       -0.3559
      9 C          60.2798   87.4495    7.9066 C.ar    1  UNL1        0.0269
     10 C          60.8364   86.0603    8.0079 C.ar    1  UNL1        0.0598
     11 CL         60.6324   85.0869    6.8851 Cl      1  UNL1       -0.0822
     12 C          61.5970   85.6446    9.2322 C.ar    1  UNL1        0.0242
     13 C          61.8010   86.6180   10.3550 C.ar    1  UNL1        0.0783
     14 CL         62.5616   86.2022   11.5791 Cl      1  UNL1       -0.0808
     15 H          60.0610   90.4512    9.6652 H       1  UNL1        0.1424
     16 H          59.4279   90.0852    8.1248 H       1  UNL1        0.1424
     17 C          63.0210   90.1537   13.0797 C.3     1  UNL1        0.0980
     18 C          64.2245   88.7904   14.9351 C.3     1  UNL1        0.0015
     19 C          63.8394   88.9676   13.4964 C.3     1  UNL1        0.0194
     20 C          63.5714   91.5395   13.2434 C.3     1  UNL1        0.1233
     21 N          65.0110   91.8170   12.9260 N.ar    1  UNL1       -0.3249
     22 C          65.6085   91.9138   11.5536 C.ar    1  UNL1        0.0716
     23 C          67.0725   92.2031   11.7048 C.ar    1  UNL1       -0.0033
     24 C          68.0565   92.3795   10.5865 C.3     1  UNL1        0.0326
     25 C          67.3798   92.2852   13.1707 C.ar    1  UNL1        0.0133
     26 C          68.6552   92.5463   13.9158 C.ar    1  UNL1        0.0012
     27 C          68.6565   92.5688   15.4156 C.ar    1  UNL1        0.0001
     28 C          67.3824   92.3302   16.1703 C.ar    1  UNL1        0.0015
     29 C          66.1070   92.0691   15.4253 C.ar    1  UNL1        0.0172
     30 C          66.1057   92.0465   13.9255 C.ar    1  UNL1        0.0596
@<TRIPOS>BOND
     1    18    19    1
     2    17    19    1
     3    17    20    1
     4    20    21    1
     5    21    22   ar
     6    22    23   ar
     7    23    24    1
     8    23    25   ar
     9    25    26   ar
    10    26    27   ar
    11    27    28   ar
    12    28    29   ar
    13    29    30   ar
    14    17     1    1
    15     1     3    1
    16     3     4    2
    17     3     5    2
    18     3     6    1
    19     6     7   ar
    20     7     8    1
    21     7     9   ar
    22     9    10   ar
    23    10    11    1
    24    10    12   ar
    25    12    13   ar
    26    13    14    1
    27    30    21   ar
    28    13     6   ar
    29    30    25   ar
    30     1     2    1
    31     8    15    1
    32     8    16    1
@<TRIPOS>MOLECULE
*****
 30 32 0 0 0
SMALL
GASTEIGER

@<TRIPOS>ATOM
      1 N          64.1255   86.4602   13.9555 N.3     1  UNL1       -0.1788
      2 H          65.1411   86.5418   13.9081 H       1  UNL1        0.1488
      3 S          63.7889   85.0390   13.6138 S.O2    1  UNL1        0.0622
      4 O          65.1563   84.6090   14.0558 O.2     1  UNL1       -0.1529
      5 O          62.4216   85.4691   13.1718 O.2     1  UNL1       -0.1529
      6 C          63.4524   83.6178   13.2721 C.ar    1  UNL1        0.1452
      7 C          62.9022   82.7031   14.3259 C.ar    1  UNL1        0.0620
      8 N          62.6886   83.2097   15.7215 N.pl3   1  UNL1       -0.3559
      9 C          62.5657   81.2818   13.9841 C.ar    1  UNL1        0.0269
     10 C          62.7794   80.7752   12.5885 C.ar    1  UNL1        0.0598
     11 CL         62.4429   79.3540   12.2468 Cl      1  UNL1       -0.0822
     12 C          63.3296   81.6900   11.5346 C.ar    1  UNL1        0.0242
     13 C          63.6661   83.1112   11.8765 C.ar    1  UNL1        0.0783
     14 CL         64.2162   84.0259   10.8226 Cl      1  UNL1       -0.0808
     15 H          62.9094   84.1425   15.9458 H       1  UNL1        0.1424
     16 H          62.3275   82.6093   16.4132 H       1  UNL1        0.1424
     17 C          63.7063   87.0335   15.2767 C.3     1  UNL1        0.0980
     18 C          62.7211   86.4177   17.6005 C.3     1  UNL1        0.0015
     19 C          63.7157   86.1723   16.5049 C.3     1  UNL1        0.0194
     20 C          63.2776   88.4680   15.3699 C.3     1  UNL1        0.1233
     21 N          63.9306   89.5036   14.5032 N.ar    1  UNL1       -0.3249
     22 C          65.1295   90.3287   14.8665 C.ar    1  UNL1        0.0716
     23 C          65.4391   91.2310   13.7090 C.ar    1  UNL1       -0.0033
     24 C          66.5595   92.2261   13.6418 C.3     1  UNL1        0.0326
     25 C          64.4316   90.9636   12.6303 C.ar    1  UNL1        0.0133
     26 C          64.2428   91.5543   11.2645 C.ar    1  UNL1        0.0012
     27 C          63.1216   91.0774   10.3897 C.ar    1  UNL1        0.0001
     28 C          62.1892   90.0098   10.8806 C.ar    1  UNL1        0.0015
     29 C          62.3781   89.4191   12.2463 C.ar    1  UNL1        0.0172
     30 C          63.4993   89.8960   13.1212 C.ar    1  UNL1        0.0596
@<TRIPOS>BOND
     1    18    19    1
     2    17    19    1
     3    17    20    1
     4    20    21    1
     5    21    22   ar
     6    22    23   ar
     7    23    24    1
     8    23    25   ar
     9    25    26   ar
    10    26    27   ar
    11    27    28   ar
    12    28    29   ar
    13    29    30   ar
    14    17     1    1
    15     1     3    1
    16     3     4    2
    17     3     5    2
    18     3     6    1
    19     6     7   ar
    20     7     8    1
    21     7     9   ar
    22     9    10   ar
    23    10    11    1
    24    10    12   ar
    25    12    13   ar
    26    13    14    1
    27    30    21   ar
    28    13     6   ar
    29    30    25   ar
    30     1     2    1
    31     8    15    1
    32     8    16    1
@<TRIPOS>MOLECULE
*****
 30 32 0 0 0
SMALL
GASTEIGER

@<TRIPOS>ATOM
      1 N          61.8688   90.0130   12.8093 N.3     1  UNL1       -0.1788
      2 H          61.9288   90.9590   12.4327 H       1  UNL1        0.1488
      3 S          61.5135   89.1125   11.6635 S.O2    1  UNL1        0.0622
      4 O          60.1943   88.8102   12.3103 O.2     1  UNL1       -0.1529
      5 O          62.8326   89.4148   11.0167 O.2     1  UNL1       -0.1529
      6 C          61.1580   88.2121   10.5178 C.ar    1  UNL1        0.1452
      7 C          60.4068   88.7581    9.3398 C.ar    1  UNL1        0.0620
      8 N          60.0111   90.2045    9.3076 N.pl3   1  UNL1       -0.3559
      9 C          60.0514   87.8575    8.1940 C.ar    1  UNL1        0.0269
     10 C          60.4472   86.4110    8.2262 C.ar    1  UNL1        0.0598
     11 CL         60.0917   85.5105    7.0805 Cl      1  UNL1       -0.0822
     12 C          61.1984   85.8650    9.4043 C.ar    1  UNL1        0.0242
     13 C          61.5538   86.7656   10.5500 C.ar    1  UNL1        0.0783
     14 CL         62.3050   86.2196   11.7279 Cl      1  UNL1       -0.0808
     15 H          60.2443   90.7956   10.0596 H       1  UNL1        0.1424
     16 H          59.5180   90.5629    8.5345 H       1  UNL1        0.1424
     17 C          63.1295   89.7757   13.5868 C.3     1  UNL1        0.0980
     18 C          64.3720   87.8185   14.7595 C.3     1  UNL1        0.0015
     19 C          63.8155   88.4437   13.5148 C.3     1  UNL1        0.0194
     20 C          63.7041   90.8704   14.4362 C.3     1  UNL1        0.1233
     21 N          65.0536   91.4402   14.1134 N.ar    1  UNL1       -0.3249
     22 C          66.2090   91.5624   15.0621 C.ar    1  UNL1        0.0716
     23 C          67.3540   92.1856   14.3202 C.ar    1  UNL1       -0.0033
     24 C          68.7089   92.4921   14.8861 C.3     1  UNL1        0.0326
     25 C          66.9062   92.4487   12.9129 C.ar    1  UNL1        0.0133
     26 C          67.6095   93.0482   11.7314 C.ar    1  UNL1        0.0012
     27 C          66.8909   93.1869   10.4221 C.ar    1  UNL1        0.0001
     28 C          65.4692   92.7263   10.2943 C.ar    1  UNL1        0.0015
     29 C          64.7659   92.1268   11.4758 C.ar    1  UNL1        0.0172
     30 C          65.4845   91.9880   12.7851 C.ar    1  UNL1        0.0596
@<TRIPOS>BOND
     1    18    19    1
     2    17    19    1
     3    17    20    1
     4    20    21    1
     5    21    22   ar
     6    22    23   ar
     7    23    24    1
     8    23    25   ar
     9    25    26   ar
    10    26    27   ar
    11    27    28   ar
    12    28    29   ar
    13    29    30   ar
    14    17     1    1
    15     1     3    1
    16     3     4    2
    17     3     5    2
    18     3     6    1
    19     6     7   ar
    20     7     8    1
    21     7     9   ar
    22     9    10   ar
    23    10    11    1
    24    10    12   ar
    25    12    13   ar
    26    13    14    1
    27    30    21   ar
    28    13     6   ar
    29    30    25   ar
    30     1     2    1
    31     8    15    1
    32     8    16    1
@<TRIPOS>MOLECULE
*****
 30 32 0 0 0
SMALL
GASTEIGER

@<TRIPOS>ATOM
      1 N          61.3935   88.5046   11.9936 N.3     1  UNL1       -0.1788
      2 H          61.8285   87.5881   11.8877 H       1  UNL1        0.1488
      3 S          62.5068   89.4949   12.1662 S.O2    1  UNL1        0.0622
      4 O          61.8234   90.0514   13.3800 O.2     1  UNL1       -0.1529
      5 O          63.1901   88.9385   10.9524 O.2     1  UNL1       -0.1529
      6 C          63.6200   90.4853   12.3388 C.ar    1  UNL1        0.1452
      7 C          63.8788   91.5151   11.2793 C.ar    1  UNL1        0.0620
      8 N          63.0244   91.5544   10.0470 N.pl3   1  UNL1       -0.3559
      9 C          64.9921   92.5055   11.4520 C.ar    1  UNL1        0.0269
     10 C          65.8465   92.4661   12.6842 C.ar    1  UNL1        0.0598
     11 CL         66.9598   93.4565   12.8569 Cl      1  UNL1       -0.0822
     12 C          65.5877   91.4363   13.7438 C.ar    1  UNL1        0.0242
     13 C          64.4744   90.4460   13.5711 C.ar    1  UNL1        0.0783
     14 CL         64.2156   89.4163   14.6306 Cl      1  UNL1       -0.0808
     15 H          62.2937   90.9044    9.9337 H       1  UNL1        0.1424
     16 H          63.1942   92.2303    9.3516 H       1  UNL1        0.1424
     17 C          60.4231   88.6569   10.8600 C.3     1  UNL1        0.0980
     18 C          59.1273   90.8476   11.3810 C.3     1  UNL1        0.0015
     19 C          59.9615   90.0229   10.4463 C.3     1  UNL1        0.0194
     20 C          59.9143   87.4433   10.1401 C.3     1  UNL1        0.1233
     21 N          60.8796   86.4988    9.4872 N.ar    1  UNL1       -0.3249
     22 C          61.0455   86.2883    8.0114 C.ar    1  UNL1        0.0716
     23 C          62.1169   85.2584    7.8077 C.ar    1  UNL1       -0.0033
     24 C          62.6062   84.7447    6.4861 C.3     1  UNL1        0.0326
     25 C          62.6132   84.8325    9.1576 C.ar    1  UNL1        0.0133
     26 C          63.6625   83.8457    9.5758 C.ar    1  UNL1        0.0012
     27 C          63.9472   83.6254   11.0319 C.ar    1  UNL1        0.0001
     28 C          63.1825   84.3920   12.0699 C.ar    1  UNL1        0.0015
     29 C          62.1331   85.3789   11.6518 C.ar    1  UNL1        0.0172
     30 C          61.8484   85.5991   10.1957 C.ar    1  UNL1        0.0596
@<TRIPOS>BOND
     1    18    19    1
     2    17    19    1
     3    17    20    1
     4    20    21    1
     5    21    22   ar
     6    22    23   ar
     7    23    24    1
     8    23    25   ar
     9    25    26   ar
    10    26    27   ar
    11    27    28   ar
    12    28    29   ar
    13    29    30   ar
    14    17     1    1
    15     1     3    1
    16     3     4    2
    17     3     5    2
    18     3     6    1
    19     6     7   ar
    20     7     8    1
    21     7     9   ar
    22     9    10   ar
    23    10    11    1
    24    10    12   ar
    25    12    13   ar
    26    13    14    1
    27    30    21   ar
    28    13     6   ar
    29    30    25   ar
    30     1     2    1
    31     8    15    1
    32     8    16    1
@<TRIPOS>MOLECULE
*****
 30 32 0 0 0
SMALL
GASTEIGER

@<TRIPOS>ATOM
      1 N          63.9085   91.7457   13.7041 N.3     1  UNL1       -0.1788
      2 H          63.7567   92.4792   13.0118 H       1  UNL1        0.1488
      3 S          63.4716   90.4572   13.0726 S.O2    1  UNL1        0.0622
      4 O          62.7526   90.0826   14.3347 O.2     1  UNL1       -0.1529
      5 O          64.1905   90.8317   11.8106 O.2     1  UNL1       -0.1529
      6 C          63.0346   89.1686   12.4413 C.ar    1  UNL1        0.1452
      7 C          62.1238   89.1883   11.2496 C.ar    1  UNL1        0.0620
      8 N          61.6500   90.4966   10.6893 N.pl3   1  UNL1       -0.3559
      9 C          61.6869   87.8996   10.6183 C.ar    1  UNL1        0.0269
     10 C          62.1607   86.5914   11.1785 C.ar    1  UNL1        0.0598
     11 CL         61.7237   85.3028   10.5472 Cl      1  UNL1       -0.0822
     12 C          63.0715   86.5718   12.3702 C.ar    1  UNL1        0.0242
     13 C          63.5084   87.8603   13.0015 C.ar    1  UNL1        0.0783
     14 CL         64.4192   87.8406   14.1932 Cl      1  UNL1       -0.0808
     15 H          61.9367   91.3423   11.1037 H       1  UNL1        0.1424
     16 H          61.0522   90.5095    9.9072 H       1  UNL1        0.1424
     17 C          65.3169   91.8999   14.1967 C.3     1  UNL1        0.0980
     18 C          66.8328   92.6730   16.1598 C.3     1  UNL1        0.0015
     19 C          65.5910   91.9899   15.6687 C.3     1  UNL1        0.0194
     20 C          66.4512   91.9641   13.2172 C.3     1  UNL1        0.1233
     21 N          66.5524   93.1155   12.2612 N.ar    1  UNL1       -0.3249
     22 C          66.0053   94.4948   12.4812 C.ar    1  UNL1        0.0716
     23 C          66.3332   95.3215   11.2733 C.ar    1  UNL1       -0.0033
     24 C          65.9744   96.7634   11.0679 C.3     1  UNL1        0.0326
     25 C          67.0829   94.4532   10.3068 C.ar    1  UNL1        0.0133
     26 C          67.6597   94.7279    8.9497 C.ar    1  UNL1        0.0012
     27 C          68.3719   93.6392    8.2031 C.ar    1  UNL1        0.0001
     28 C          68.5074   92.2758    8.8137 C.ar    1  UNL1        0.0015
     29 C          67.9306   92.0011   10.1708 C.ar    1  UNL1        0.0172
     30 C          67.2183   93.0898   10.9174 C.ar    1  UNL1        0.0596
@<TRIPOS>BOND
     1    18    19    1
     2    17    19    1
     3    17    20    1
     4    20    21    1
     5    21    22   ar
     6    22    23   ar
     7    23    24    1
     8    23    25   ar
     9    25    26   ar
    10    26    27   ar
    11    27    28   ar
    12    28    29   ar
    13    29    30   ar
    14    17     1    1
    15     1     3    1
    16     3     4    2
    17     3     5    2
    18     3     6    1
    19     6     7   ar
    20     7     8    1
    21     7     9   ar
    22     9    10   ar
    23    10    11    1
    24    10    12   ar
    25    12    13   ar
    26    13    14    1
    27    30    21   ar
    28    13     6   ar
    29    30    25   ar
    30     1     2    1
    31     8    15    1
    32     8    16    1
@<TRIPOS>MOLECULE
*****
 30 32 0 0 0
SMALL
GASTEIGER

@<TRIPOS>ATOM
      1 N          62.8523   89.4974   14.8601 N.3     1  UNL1       -0.1788
      2 H          62.3992   90.1086   15.5395 H       1  UNL1        0.1488
      3 S          63.6778   90.3775   13.9690 S.O2    1  UNL1        0.0622
      4 O          63.5936   91.4812   14.9813 O.2     1  UNL1       -0.1529
      5 O          63.7619   89.2738   12.9567 O.2     1  UNL1       -0.1529
      6 C          64.5032   91.2576   13.0779 C.ar    1  UNL1        0.1452
      7 C          63.9735   91.6766   11.7386 C.ar    1  UNL1        0.0620
      8 N          62.6184   91.2155   11.2903 N.pl3   1  UNL1       -0.3559
      9 C          64.7991   92.5568   10.8476 C.ar    1  UNL1        0.0269
     10 C          66.1542   93.0180   11.2959 C.ar    1  UNL1        0.0598
     11 CL         66.9797   93.8981   10.4048 Cl      1  UNL1       -0.0822
     12 C          66.6838   92.5989   12.6353 C.ar    1  UNL1        0.0242
     13 C          65.8583   91.7188   13.5263 C.ar    1  UNL1        0.0783
     14 CL         66.3880   91.2998   14.8656 Cl      1  UNL1       -0.0808
     15 H          62.0767   90.6378   11.8751 H       1  UNL1        0.1424
     16 H          62.2708   91.4905   10.4112 H       1  UNL1        0.1424
     17 C          63.5058   88.3941   15.6383 C.3     1  UNL1        0.0980
     18 C          62.6229   86.8422   17.5255 C.3     1  UNL1        0.0015
     19 C          63.1442   88.1754   17.0775 C.3     1  UNL1        0.0194
     20 C          64.5210   87.5094   14.9772 C.3     1  UNL1        0.1233
     21 N          64.0985   86.2009   14.3778 N.ar    1  UNL1       -0.3249
     22 C          64.3127   84.8445   14.9814 C.ar    1  UNL1        0.0716
     23 C          63.7342   83.8244   14.0461 C.ar    1  UNL1       -0.0033
     24 C          63.7284   82.3391   14.2556 C.3     1  UNL1        0.0326
     25 C          63.1625   84.5503   12.8645 C.ar    1  UNL1        0.0133
     26 C          62.4660   84.0637   11.6284 C.ar    1  UNL1        0.0012
     27 C          61.9946   85.0458   10.5973 C.ar    1  UNL1        0.0001
     28 C          62.2198   86.5146   10.8023 C.ar    1  UNL1        0.0015
     29 C          62.9163   87.0012   12.0384 C.ar    1  UNL1        0.0172
     30 C          63.3876   86.0191   13.0695 C.ar    1  UNL1        0.0596
@<TRIPOS>BOND
     1    18    19    1
     2    17    19    1
     3    17    20    1
     4    20    21    1
     5    21    22   ar
     6    22    23   ar
     7    23    24    1
     8    23    25   ar
     9    25    26   ar
    10    26    27   ar
    11    27    28   ar
    12    28    29   ar
    13    29    30   ar
    14    17     1    1
    15     1     3    1
    16     3     4    2
    17     3     5    2
    18     3     6    1
    19     6     7   ar
    20     7     8    1
    21     7     9   ar
    22     9    10   ar
    23    10    11    1
    24    10    12   ar
    25    12    13   ar
    26    13    14    1
    27    30    21   ar
    28    13     6   ar
    29    30    25   ar
    30     1     2    1
    31     8    15    1
    32     8    16    1
