@<TRIPOS>MOLECULE
*****
 37 43 0 0 0
SMALL
GASTEIGER

@<TRIPOS>ATOM
      1 C          62.7720   83.5155   12.5986 C.2     1  UNL1        0.3251
      2 N          62.2427   82.1250   12.7886 N.2     1  UNL1       -0.0623
      3 C          63.0470   81.4665   13.8700 C.3     1  UNL1        0.2647
      4 C          62.3176   80.1564   13.8322 C.3     1  UNL1        0.0655
      5 C          63.4491   80.3573   14.7962 C.3     1  UNL1        0.0655
      6 C          64.0735   82.4501   14.3483 C.2     1  UNL1        0.3577
      7 O          65.0912   82.2096   15.4237 O.2     1  UNL1       -0.2421
      8 N          63.9036   83.7165   13.5626 N.am    1  UNL1       -0.1375
      9 C          61.2354   86.5515    9.6537 C.ar    1  UNL1        0.0000
     10 C          61.0210   86.7574   11.1240 C.ar    1  UNL1        0.0002
     11 C          61.5332   85.7455   12.1057 C.ar    1  UNL1        0.0074
     12 C          62.2598   84.5275   11.6170 C.ar    1  UNL1        0.0823
     13 C          62.4742   84.3216   10.1467 C.ar    1  UNL1        0.0074
     14 C          61.9620   85.3336    9.1651 C.ar    1  UNL1        0.0002
     15 C          59.6987   89.5874    6.7090 C.ar    1  UNL1        0.0030
     16 C          60.3674   90.0402    7.9730 C.ar    1  UNL1        0.0001
     17 C          60.8797   89.0283    8.9546 C.ar    1  UNL1        0.0000
     18 C          60.7232   87.5634    8.6722 C.ar    1  UNL1        0.0000
     19 C          60.0544   87.1106    7.4081 C.ar    1  UNL1        0.0000
     20 C          59.5422   88.1225    6.4266 C.ar    1  UNL1        0.0001
     21 C          59.5085   93.2516    2.9119 C.3     1  UNL1        0.1538
     22 N          59.0990   92.2836    3.9821 N.ar    1  UNL1       -0.2473
     23 C          60.0194   91.3997    4.7705 C.ar    1  UNL1        0.0967
     24 C          59.1864   90.5993    5.7274 C.ar    1  UNL1        0.0396
     25 C          57.7512   90.9886    5.5303 C.ar    1  UNL1        0.1216
     26 N          57.6972   92.0295    4.4517 N.ar    1  UNL1       -0.1676
     27 C          64.7216   84.9647   13.7143 C.3     1  UNL1        0.2120
     28 C          64.2512   86.0641   14.6198 C.3     1  UNL1        0.0688
     29 C          63.5789   85.8850   15.9486 C.3     1  UNL1        0.0274
     30 C          63.2828   87.2460   16.5055 C.3     1  UNL1        0.0936
     31 N          63.7722   88.2663   15.5208 N.am    1  UNL1       -0.2794
     32 C          63.6793   89.7555   15.6745 C.2     1  UNL1        0.2251
     33 O          63.0506   90.3450   16.9022 O.2     1  UNL1       -0.2749
     34 C          64.3707   87.5358   14.3553 C.3     1  UNL1        0.0975
     35 C          64.2151   90.6552   14.6005 C.3     1  UNL1        0.0767
     36 C          64.0738   91.2937   13.2506 C.3     1  UNL1        0.0096
     37 C          65.2845   91.5750   14.0902 C.3     1  UNL1        0.0096
@<TRIPOS>BOND
     1    21    22    1
     2    22    23   ar
     3    23    24   ar
     4    24    15    1
     5    15    16   ar
     6    16    17   ar
     7    17    18   ar
     8    18     9    1
     9     9    10   ar
    10    10    11   ar
    11    11    12   ar
    12    12     1    1
    13     1     2    2
    14     2     3    1
    15     3     4    1
    16     4     5    1
    17     3     6    1
    18     6     7    2
    19     6     8   am
    20     8    27    1
    21    28    27    1
    22    28    29    1
    23    29    30    1
    24    30    31    1
    25    31    32   am
    26    32    33    2
    27    32    35    1
    28    35    36    1
    29    36    37    1
    30    31    34    1
    31    12    13   ar
    32    13    14   ar
    33    18    19   ar
    34    19    20   ar
    35    24    25   ar
    36    25    26   ar
    37    26    22   ar
    38    20    15   ar
    39    14     9   ar
    40     8     1    1
    41    34    28    1
    42     5     3    1
    43    37    35    1
@<TRIPOS>MOLECULE
*****
 37 43 0 0 0
SMALL
GASTEIGER

@<TRIPOS>ATOM
      1 C          60.8593   89.3511    9.1686 C.2     1  UNL1        0.3251
      2 N          60.3104   90.0247    7.9460 N.2     1  UNL1       -0.0623
      3 C          59.2634   89.1287    7.3537 C.3     1  UNL1        0.2647
      4 C          58.9183   90.0289    6.2046 C.3     1  UNL1        0.0655
      5 C          58.2105   88.7166    6.3679 C.3     1  UNL1        0.0655
      6 C          59.1652   87.9012    8.2103 C.2     1  UNL1        0.3577
      7 O          58.2427   86.7401    7.9848 O.2     1  UNL1       -0.2421
      8 N          60.1515   88.0386    9.3320 N.am    1  UNL1       -0.1375
      9 C          64.0663   90.9812   11.8720 C.ar    1  UNL1        0.0000
     10 C          63.8006   91.6315   10.5466 C.ar    1  UNL1        0.0002
     11 C          62.7316   91.0881    9.6455 C.ar    1  UNL1        0.0074
     12 C          61.9283   89.8945   10.0698 C.ar    1  UNL1        0.0823
     13 C          62.1940   89.2442   11.3951 C.ar    1  UNL1        0.0074
     14 C          63.2630   89.7876   12.2962 C.ar    1  UNL1        0.0002
     15 C          67.2733   92.6116   14.5751 C.ar    1  UNL1        0.0030
     16 C          66.5136   91.3802   14.9706 C.ar    1  UNL1        0.0001
     17 C          65.4446   90.8367   14.0696 C.ar    1  UNL1        0.0000
     18 C          65.1352   91.5246   12.7730 C.ar    1  UNL1        0.0000
     19 C          65.8950   92.7561   12.3775 C.ar    1  UNL1        0.0000
     20 C          66.9640   93.2996   13.2784 C.ar    1  UNL1        0.0001
     21 C          71.3599   92.9125   17.9051 C.3     1  UNL1        0.1538
     22 N          70.2207   93.2934   17.0067 N.ar    1  UNL1       -0.2473
     23 C          69.3483   92.3451   16.2389 C.ar    1  UNL1        0.0967
     24 C          68.3423   93.1551   15.4761 C.ar    1  UNL1        0.0396
     25 C          68.5931   94.6041   15.7724 C.ar    1  UNL1        0.1216
     26 N          69.7540   94.6895   16.7184 N.ar    1  UNL1       -0.1676
     27 C          60.3885   87.0392   10.4251 C.3     1  UNL1        0.2120
     28 C          61.4859   86.0256   10.2896 C.3     1  UNL1        0.0688
     29 C          62.2071   85.6710    9.0231 C.3     1  UNL1        0.0274
     30 C          63.2217   84.6149    9.3477 C.3     1  UNL1        0.0936
     31 N          63.1275   84.3169   10.8148 N.am    1  UNL1       -0.2794
     32 C          63.9600   83.3217   11.5675 C.2     1  UNL1        0.2251
     33 O          65.0008   82.5170   10.8471 O.2     1  UNL1       -0.2749
     34 C          62.0547   85.1888   11.3970 C.3     1  UNL1        0.0975
     35 C          63.7516   83.1313   13.0408 C.3     1  UNL1        0.0767
     36 C          63.0216   82.4759   14.1754 C.3     1  UNL1        0.0096
     37 C          64.1207   83.4568   14.4577 C.3     1  UNL1        0.0096
@<TRIPOS>BOND
     1    21    22    1
     2    22    23   ar
     3    23    24   ar
     4    24    15    1
     5    15    16   ar
     6    16    17   ar
     7    17    18   ar
     8    18     9    1
     9     9    10   ar
    10    10    11   ar
    11    11    12   ar
    12    12     1    1
    13     1     2    2
    14     2     3    1
    15     3     4    1
    16     4     5    1
    17     3     6    1
    18     6     7    2
    19     6     8   am
    20     8    27    1
    21    28    27    1
    22    28    29    1
    23    29    30    1
    24    30    31    1
    25    31    32   am
    26    32    33    2
    27    32    35    1
    28    35    36    1
    29    36    37    1
    30    31    34    1
    31    12    13   ar
    32    13    14   ar
    33    18    19   ar
    34    19    20   ar
    35    24    25   ar
    36    25    26   ar
    37    26    22   ar
    38    20    15   ar
    39    14     9   ar
    40     8     1    1
    41    34    28    1
    42     5     3    1
    43    37    35    1
