@<TRIPOS>MOLECULE
*****
 27 29 0 0 0
SMALL
GASTEIGER

@<TRIPOS>ATOM
      1 C          63.8655   90.0601   12.9190 C.ar    1  UNL1        0.0186
      2 C          63.0413   88.9620   12.3148 C.ar    1  UNL1        0.0105
      3 C          62.4906   89.1139   10.9278 C.ar    1  UNL1        0.0576
      4 CL         61.6664   88.0158   10.3237 Cl      1  UNL1       -0.0823
      5 C          62.7641   90.3638   10.1450 C.ar    1  UNL1        0.0145
      6 C          63.5883   91.4619   10.7491 C.ar    1  UNL1        0.0375
      7 C          64.1390   91.3100   12.1361 C.ar    1  UNL1        0.1354
      8 C          64.4162   89.9082   14.3059 C.3     1  UNL1        0.0751
      9 CA         63.8581   86.1830   15.5556 C.ar    1  UNL1        0.0948
     10 C          63.1549   86.4235   16.8585 C.ar    1  UNL1        0.0203
     11 C          62.8720   87.8255   17.3105 C.ar    1  UNL1        0.0028
     12 C          63.2924   88.9871   16.4597 C.ar    1  UNL1        0.0151
     13 C          63.9957   88.7466   15.1568 C.ar    1  UNL1        0.0635
     14 N          64.2786   87.3446   14.7048 N.ar    1  UNL1       -0.2482
     15 O          65.3725   84.4863   14.2995 O.co2   1  UNL1       -0.5430
     16 C          64.1410   84.7810   15.1036 C.2     1  UNL1        0.0905
     17 OXT        63.1924   83.6737   15.4556 O.co2   1  UNL1       -0.5430
     18 O          64.9631   92.4081   12.7402 O.3     1  UNL1       -0.4709
     19 C          66.3738   92.6272   12.2797 C.3     1  UNL1        0.2328
     20 C          66.6707   93.6683   11.2415 C.ar    1  UNL1        0.0319
     21 C          66.1784   95.0731   11.4258 C.ar    1  UNL1        0.0025
     22 C          66.4753   96.1142   10.3876 C.ar    1  UNL1        0.0295
     23 C          67.2645   95.7505    9.1649 C.ar    1  UNL1        0.1410
     24 F          67.5614   96.7916    8.1267 F       1  UNL1       -0.2041
     25 C          67.7568   94.3456    8.9806 C.ar    1  UNL1        0.0408
     26 C          67.4599   93.3045   10.0188 C.ar    1  UNL1        0.0594
     27 CL         67.9522   91.8996    9.8344 Cl      1  UNL1       -0.0824
@<TRIPOS>UNITY_ATOM_ATTR
17 1
charge -1
@<TRIPOS>BOND
     1    15    16   ar
     2    16    17   ar
     3    16     9    1
     4     9    10   ar
     5    10    11   ar
     6    11    12   ar
     7    12    13   ar
     8    13     8    1
     9     8     1    1
    10     1     2   ar
    11     2     3   ar
    12     3     4    1
    13     3     5   ar
    14     5     6   ar
    15     6     7   ar
    16     7    18    1
    17    18    19    1
    18    19    20    1
    19    20    21   ar
    20    21    22   ar
    21    22    23   ar
    22    23    24    1
    23    23    25   ar
    24    25    26   ar
    25    26    27    1
    26    13    14   ar
    27    14     9   ar
    28     7     1   ar
    29    26    20   ar
@<TRIPOS>MOLECULE
*****
 27 29 0 0 0
SMALL
GASTEIGER

@<TRIPOS>ATOM
      1 C          62.9685   83.8640   12.3477 C.ar    1  UNL1        0.0186
      2 C          63.1125   82.8136   11.2866 C.ar    1  UNL1        0.0105
      3 C          62.8934   81.3691   11.6265 C.ar    1  UNL1        0.0576
      4 CL         63.0375   80.3187   10.5654 Cl      1  UNL1       -0.0823
      5 C          62.5303   80.9750   13.0275 C.ar    1  UNL1        0.0145
      6 C          62.3862   82.0254   14.0886 C.ar    1  UNL1        0.0375
      7 C          62.6053   83.4699   13.7487 C.ar    1  UNL1        0.1354
      8 C          63.1875   85.3084   12.0078 C.3     1  UNL1        0.0751
      9 CA         60.4443   87.9570   10.9079 C.ar    1  UNL1        0.0948
     10 C          60.1695   87.5131    9.5017 C.ar    1  UNL1        0.0203
     11 C          60.9006   86.3343    8.9309 C.ar    1  UNL1        0.0028
     12 C          61.9066   85.5994    9.7662 C.ar    1  UNL1        0.0151
     13 C          62.1815   86.0433   11.1724 C.ar    1  UNL1        0.0635
     14 N          61.4503   87.2221   11.7432 N.ar    1  UNL1       -0.2482
     15 O          59.7056   90.4423   10.7418 O.co2   1  UNL1       -0.5430
     16 C          59.7132   89.1358   11.4787 C.2     1  UNL1        0.0905
     17 OXT        58.9896   89.0081   12.7863 O.co2   1  UNL1       -0.5430
     18 O          62.4612   84.5202   14.8098 O.3     1  UNL1       -0.4709
     19 C          63.6790   85.1979   15.3646 C.3     1  UNL1        0.2328
     20 C          63.6958   86.6880   15.5354 C.ar    1  UNL1        0.0319
     21 C          64.3024   87.5578   14.4746 C.ar    1  UNL1        0.0025
     22 C          64.3191   89.0480   14.6454 C.ar    1  UNL1        0.0295
     23 C          63.7293   89.6683   15.8771 C.ar    1  UNL1        0.1410
     24 F          63.7460   91.1585   16.0480 F       1  UNL1       -0.2041
     25 C          63.1227   88.7986   16.9380 C.ar    1  UNL1        0.0408
     26 C          63.1059   87.3084   16.7671 C.ar    1  UNL1        0.0594
     27 CL         62.4993   86.4386   17.8281 Cl      1  UNL1       -0.0824
@<TRIPOS>UNITY_ATOM_ATTR
17 1
charge -1
@<TRIPOS>BOND
     1    15    16   ar
     2    16    17   ar
     3    16     9    1
     4     9    10   ar
     5    10    11   ar
     6    11    12   ar
     7    12    13   ar
     8    13     8    1
     9     8     1    1
    10     1     2   ar
    11     2     3   ar
    12     3     4    1
    13     3     5   ar
    14     5     6   ar
    15     6     7   ar
    16     7    18    1
    17    18    19    1
    18    19    20    1
    19    20    21   ar
    20    21    22   ar
    21    22    23   ar
    22    23    24    1
    23    23    25   ar
    24    25    26   ar
    25    26    27    1
    26    13    14   ar
    27    14     9   ar
    28     7     1   ar
    29    26    20   ar
@<TRIPOS>MOLECULE
*****
 27 29 0 0 0
SMALL
GASTEIGER

@<TRIPOS>ATOM
      1 C          62.1731   86.5960   11.1691 C.ar    1  UNL1        0.0186
      2 C          61.3188   85.9776   10.1024 C.ar    1  UNL1        0.0105
      3 C          60.6402   86.8481    9.0866 C.ar    1  UNL1        0.0576
      4 CL         59.7860   86.2297    8.0199 Cl      1  UNL1       -0.0823
      5 C          60.8160   88.3369    9.1374 C.ar    1  UNL1        0.0145
      6 C          61.6703   88.9553   10.2040 C.ar    1  UNL1        0.0375
      7 C          62.3488   88.0849   11.2199 C.ar    1  UNL1        0.1354
      8 C          62.8516   85.7257   12.1850 C.3     1  UNL1        0.0751
      9 CA         62.6280   81.7994   12.7187 C.ar    1  UNL1        0.0948
     10 C          63.2558   81.3046   11.4495 C.ar    1  UNL1        0.0203
     11 C          63.7488   82.2835   10.4254 C.ar    1  UNL1        0.0028
     12 C          63.6141   83.7571   10.6705 C.ar    1  UNL1        0.0151
     13 C          62.9863   84.2519   11.9398 C.ar    1  UNL1        0.0635
     14 N          62.4933   83.2731   12.9639 N.ar    1  UNL1       -0.2482
     15 O          63.1048   79.9163   14.4439 O.co2   1  UNL1       -0.5430
     16 C          62.1349   80.8206   13.7428 C.2     1  UNL1        0.0905
     17 OXT        60.6721   80.7460   14.0658 O.co2   1  UNL1       -0.5430
     18 O          63.2031   88.7033   12.2866 O.3     1  UNL1       -0.4709
     19 C          62.9570   90.1187   12.7177 C.3     1  UNL1        0.2328
     20 C          64.1028   90.9754   13.1686 C.ar    1  UNL1        0.0319
     21 C          64.5551   90.9313   14.5981 C.ar    1  UNL1        0.0025
     22 C          65.7009   91.7879   15.0490 C.ar    1  UNL1        0.0295
     23 C          66.3944   92.6887   14.0704 C.ar    1  UNL1        0.1410
     24 F          67.5402   93.5453   14.5212 F       1  UNL1       -0.2041
     25 C          65.9421   92.7328   12.6409 C.ar    1  UNL1        0.0408
     26 C          64.7963   91.8761   12.1900 C.ar    1  UNL1        0.0594
     27 CL         64.3440   91.9202   10.7605 Cl      1  UNL1       -0.0824
@<TRIPOS>UNITY_ATOM_ATTR
17 1
charge -1
@<TRIPOS>BOND
     1    15    16   ar
     2    16    17   ar
     3    16     9    1
     4     9    10   ar
     5    10    11   ar
     6    11    12   ar
     7    12    13   ar
     8    13     8    1
     9     8     1    1
    10     1     2   ar
    11     2     3   ar
    12     3     4    1
    13     3     5   ar
    14     5     6   ar
    15     6     7   ar
    16     7    18    1
    17    18    19    1
    18    19    20    1
    19    20    21   ar
    20    21    22   ar
    21    22    23   ar
    22    23    24    1
    23    23    25   ar
    24    25    26   ar
    25    26    27    1
    26    13    14   ar
    27    14     9   ar
    28     7     1   ar
    29    26    20   ar
@<TRIPOS>MOLECULE
*****
 27 29 0 0 0
SMALL
GASTEIGER

@<TRIPOS>ATOM
      1 C          60.4891   88.6226   10.3188 C.ar    1  UNL1        0.0186
      2 C          59.9936   89.3033    9.0774 C.ar    1  UNL1        0.0105
      3 C          59.7385   88.5034    7.8343 C.ar    1  UNL1        0.0576
      4 CL         59.2429   89.1842    6.5929 Cl      1  UNL1       -0.0823
      5 C          59.9789   87.0228    7.8327 C.ar    1  UNL1        0.0145
      6 C          60.4745   86.3421    9.0740 C.ar    1  UNL1        0.0375
      7 C          60.7296   87.1419   10.3171 C.ar    1  UNL1        0.1354
      8 C          60.7442   89.4224   11.5618 C.3     1  UNL1        0.0751
      9 CA         63.9648   91.0482   13.2155 C.ar    1  UNL1        0.0948
     10 C          64.5991   91.6980   12.0216 C.ar    1  UNL1        0.0203
     11 C          63.9484   91.5894   10.6745 C.ar    1  UNL1        0.0028
     12 C          62.6635   90.8308   10.5212 C.ar    1  UNL1        0.0151
     13 C          62.0292   90.1810   11.7150 C.ar    1  UNL1        0.0635
     14 N          62.6799   90.2897   13.0622 N.ar    1  UNL1       -0.2482
     15 O          63.7783   91.4067   15.7819 O.co2   1  UNL1       -0.5430
     16 C          64.6155   91.1569   14.5626 C.2     1  UNL1        0.0905
     17 OXT        66.1033   91.0157   14.6905 O.co2   1  UNL1       -0.5430
     18 O          61.2251   86.4611   11.5584 O.3     1  UNL1       -0.4709
     19 C          62.6192   85.9097   11.6058 C.3     1  UNL1        0.2328
     20 C          62.8691   84.5515   12.1913 C.ar    1  UNL1        0.0319
     21 C          62.5632   84.2898   13.6362 C.ar    1  UNL1        0.0025
     22 C          62.8130   82.9316   14.2217 C.ar    1  UNL1        0.0295
     23 C          63.3688   81.8350   13.3623 C.ar    1  UNL1        0.1410
     24 F          63.6186   80.4768   13.9478 F       1  UNL1       -0.2041
     25 C          63.6747   82.0967   11.9173 C.ar    1  UNL1        0.0408
     26 C          63.4248   83.4549   11.3318 C.ar    1  UNL1        0.0594
     27 CL         63.7307   83.7166    9.8868 Cl      1  UNL1       -0.0824
@<TRIPOS>UNITY_ATOM_ATTR
17 1
charge -1
@<TRIPOS>BOND
     1    15    16   ar
     2    16    17   ar
     3    16     9    1
     4     9    10   ar
     5    10    11   ar
     6    11    12   ar
     7    12    13   ar
     8    13     8    1
     9     8     1    1
    10     1     2   ar
    11     2     3   ar
    12     3     4    1
    13     3     5   ar
    14     5     6   ar
    15     6     7   ar
    16     7    18    1
    17    18    19    1
    18    19    20    1
    19    20    21   ar
    20    21    22   ar
    21    22    23   ar
    22    23    24    1
    23    23    25   ar
    24    25    26   ar
    25    26    27    1
    26    13    14   ar
    27    14     9   ar
    28     7     1   ar
    29    26    20   ar
@<TRIPOS>MOLECULE
*****
 27 29 0 0 0
SMALL
GASTEIGER

@<TRIPOS>ATOM
      1 C          64.0442   84.2384   13.5448 C.ar    1  UNL1        0.0186
      2 C          64.0644   82.8336   14.0703 C.ar    1  UNL1        0.0105
      3 C          63.2595   81.7665   13.3893 C.ar    1  UNL1        0.0576
      4 CL         63.2797   80.3617   13.9147 Cl      1  UNL1       -0.0823
      5 C          62.4345   82.1043   12.1831 C.ar    1  UNL1        0.0145
      6 C          62.4143   83.5092   11.6577 C.ar    1  UNL1        0.0375
      7 C          63.2191   84.5762   12.3385 C.ar    1  UNL1        0.1354
      8 C          64.8491   85.3055   14.2257 C.3     1  UNL1        0.0751
      9 CA         63.5014   88.6392   15.9049 C.ar    1  UNL1        0.0948
     10 C          62.8707   88.0937   17.1517 C.ar    1  UNL1        0.0203
     11 C          62.8994   86.6188   17.4232 C.ar    1  UNL1        0.0028
     12 C          63.5589   85.6894   16.4479 C.ar    1  UNL1        0.0151
     13 C          64.1896   86.2349   15.2011 C.ar    1  UNL1        0.0635
     14 N          64.1608   87.7098   14.9296 N.ar    1  UNL1       -0.2482
     15 O          63.4529   91.0867   16.7752 O.co2   1  UNL1       -0.5430
     16 C          63.4726   90.1142   15.6334 C.2     1  UNL1        0.0905
     17 OXT        63.4636   90.6166   14.2201 O.co2   1  UNL1       -0.5430
     18 O          63.1989   85.9810   11.8131 O.3     1  UNL1       -0.4709
     19 C          61.9371   86.7892   11.8815 C.3     1  UNL1        0.2328
     20 C          61.2605   87.2318   10.6180 C.ar    1  UNL1        0.0319
     21 C          60.9660   86.2352    9.5363 C.ar    1  UNL1        0.0025
     22 C          60.2894   86.6778    8.2728 C.ar    1  UNL1        0.0295
     23 C          59.9073   88.1168    8.0910 C.ar    1  UNL1        0.1410
     24 F          59.2307   88.5593    6.8276 F       1  UNL1       -0.2041
     25 C          60.2018   89.1133    9.1728 C.ar    1  UNL1        0.0408
     26 C          60.8784   88.6708   10.4362 C.ar    1  UNL1        0.0594
     27 CL         61.1729   89.6674   11.5180 Cl      1  UNL1       -0.0824
@<TRIPOS>UNITY_ATOM_ATTR
17 1
charge -1
@<TRIPOS>BOND
     1    15    16   ar
     2    16    17   ar
     3    16     9    1
     4     9    10   ar
     5    10    11   ar
     6    11    12   ar
     7    12    13   ar
     8    13     8    1
     9     8     1    1
    10     1     2   ar
    11     2     3   ar
    12     3     4    1
    13     3     5   ar
    14     5     6   ar
    15     6     7   ar
    16     7    18    1
    17    18    19    1
    18    19    20    1
    19    20    21   ar
    20    21    22   ar
    21    22    23   ar
    22    23    24    1
    23    23    25   ar
    24    25    26   ar
    25    26    27    1
    26    13    14   ar
    27    14     9   ar
    28     7     1   ar
    29    26    20   ar
@<TRIPOS>MOLECULE
*****
 27 29 0 0 0
SMALL
GASTEIGER

@<TRIPOS>ATOM
      1 C          62.9318   90.6243   12.4554 C.ar    1  UNL1        0.0186
      2 C          63.6743   91.3275   11.3580 C.ar    1  UNL1        0.0105
      3 C          65.0054   91.9595   11.6385 C.ar    1  UNL1        0.0576
      4 CL         65.7478   92.6628   10.5410 Cl      1  UNL1       -0.0823
      5 C          65.5941   91.8883   13.0162 C.ar    1  UNL1        0.0145
      6 C          64.8517   91.1851   14.1137 C.ar    1  UNL1        0.0375
      7 C          63.5206   90.5531   13.8333 C.ar    1  UNL1        0.1354
      8 C          61.6007   89.9922   12.1751 C.3     1  UNL1        0.0751
      9 CA         60.4145   87.8158    9.0757 C.ar    1  UNL1        0.0948
     10 C          61.2932   86.6092    9.2238 C.ar    1  UNL1        0.0203
     11 C          62.2744   86.5302   10.3556 C.ar    1  UNL1        0.0028
     12 C          62.3769   87.6579   11.3393 C.ar    1  UNL1        0.0151
     13 C          61.4982   88.8645   11.1913 C.ar    1  UNL1        0.0635
     14 N          60.5171   88.9434   10.0595 N.ar    1  UNL1       -0.2482
     15 O          58.4199   86.8056    7.7525 O.co2   1  UNL1       -0.5430
     16 C          59.4333   87.8948    7.9439 C.2     1  UNL1        0.0905
     17 OXT        59.4656   89.0628    7.0034 O.co2   1  UNL1       -0.5430
     18 O          62.7782   89.8499   14.9307 O.3     1  UNL1       -0.4709
     19 C          63.5292   89.0359   15.9423 C.3     1  UNL1        0.2328
     20 C          63.6936   87.5582   15.7433 C.ar    1  UNL1        0.0319
     21 C          64.3345   87.0367   14.4915 C.ar    1  UNL1        0.0025
     22 C          64.4989   85.5591   14.2925 C.ar    1  UNL1        0.0295
     23 C          64.0224   84.6030   15.3454 C.ar    1  UNL1        0.1410
     24 F          64.1868   83.1253   15.1465 F       1  UNL1       -0.2041
     25 C          63.3815   85.1245   16.5973 C.ar    1  UNL1        0.0408
     26 C          63.2171   86.6021   16.7962 C.ar    1  UNL1        0.0594
     27 CL         62.5761   87.1236   18.0482 Cl      1  UNL1       -0.0824
@<TRIPOS>UNITY_ATOM_ATTR
17 1
charge -1
@<TRIPOS>BOND
     1    15    16   ar
     2    16    17   ar
     3    16     9    1
     4     9    10   ar
     5    10    11   ar
     6    11    12   ar
     7    12    13   ar
     8    13     8    1
     9     8     1    1
    10     1     2   ar
    11     2     3   ar
    12     3     4    1
    13     3     5   ar
    14     5     6   ar
    15     6     7   ar
    16     7    18    1
    17    18    19    1
    18    19    20    1
    19    20    21   ar
    20    21    22   ar
    21    22    23   ar
    22    23    24    1
    23    23    25   ar
    24    25    26   ar
    25    26    27    1
    26    13    14   ar
    27    14     9   ar
    28     7     1   ar
    29    26    20   ar
@<TRIPOS>MOLECULE
*****
 27 29 0 0 0
SMALL
GASTEIGER

@<TRIPOS>ATOM
      1 C          61.9567   86.3521   10.2408 C.ar    1  UNL1        0.0186
      2 C          60.9720   85.9671    9.1767 C.ar    1  UNL1        0.0105
      3 C          59.9077   86.9359    8.7538 C.ar    1  UNL1        0.0576
      4 CL         58.9230   86.5508    7.6897 Cl      1  UNL1       -0.0823
      5 C          59.8280   88.2895    9.3950 C.ar    1  UNL1        0.0145
      6 C          60.8126   88.6746   10.4590 C.ar    1  UNL1        0.0375
      7 C          61.8769   87.7059   10.8819 C.ar    1  UNL1        0.1354
      8 C          63.0210   85.3835   10.6637 C.3     1  UNL1        0.0751
      9 CA         62.7490   84.4514   14.5117 C.ar    1  UNL1        0.0948
     10 C          62.5030   82.9741   14.4288 C.ar    1  UNL1        0.0203
     11 C          62.4296   82.2999   13.0909 C.ar    1  UNL1        0.0028
     12 C          62.6023   83.1030   11.8359 C.ar    1  UNL1        0.0151
     13 C          62.8483   84.5803   11.9188 C.ar    1  UNL1        0.0635
     14 N          62.9216   85.2545   13.2567 N.ar    1  UNL1       -0.2482
     15 O          61.5639   85.4222   16.6101 O.co2   1  UNL1       -0.5430
     16 C          62.8223   85.1256   15.8496 C.2     1  UNL1        0.0905
     17 OXT        64.1542   85.5033   16.4272 O.co2   1  UNL1       -0.5430
     18 O          62.8616   88.0910   11.9460 O.3     1  UNL1       -0.4709
     19 C          62.6650   89.3562   12.7273 C.3     1  UNL1        0.2328
     20 C          63.8163   90.2945   12.9373 C.ar    1  UNL1        0.0319
     21 C          64.6324   90.2112   14.1930 C.ar    1  UNL1        0.0025
     22 C          65.7837   91.1495   14.4030 C.ar    1  UNL1        0.0295
     23 C          66.1190   92.1711   13.3572 C.ar    1  UNL1        0.1410
     24 F          67.2703   93.1094   13.5672 F       1  UNL1       -0.2041
     25 C          65.3029   92.2545   12.1014 C.ar    1  UNL1        0.0408
     26 C          64.1516   91.3162   11.8914 C.ar    1  UNL1        0.0594
     27 CL         63.3355   91.3996   10.6356 Cl      1  UNL1       -0.0824
@<TRIPOS>UNITY_ATOM_ATTR
17 1
charge -1
@<TRIPOS>BOND
     1    15    16   ar
     2    16    17   ar
     3    16     9    1
     4     9    10   ar
     5    10    11   ar
     6    11    12   ar
     7    12    13   ar
     8    13     8    1
     9     8     1    1
    10     1     2   ar
    11     2     3   ar
    12     3     4    1
    13     3     5   ar
    14     5     6   ar
    15     6     7   ar
    16     7    18    1
    17    18    19    1
    18    19    20    1
    19    20    21   ar
    20    21    22   ar
    21    22    23   ar
    22    23    24    1
    23    23    25   ar
    24    25    26   ar
    25    26    27    1
    26    13    14   ar
    27    14     9   ar
    28     7     1   ar
    29    26    20   ar
@<TRIPOS>MOLECULE
*****
 27 29 0 0 0
SMALL
GASTEIGER

@<TRIPOS>ATOM
      1 C          62.9990   86.9426   12.6420 C.ar    1  UNL1        0.0186
      2 C          62.9798   88.2959   11.9954 C.ar    1  UNL1        0.0105
      3 C          63.6449   89.4589   12.6700 C.ar    1  UNL1        0.0576
      4 CL         63.6258   90.8123   12.0234 Cl      1  UNL1       -0.0823
      5 C          64.3292   89.2685   13.9912 C.ar    1  UNL1        0.0145
      6 C          64.3483   87.9152   14.6378 C.ar    1  UNL1        0.0375
      7 C          63.6833   86.7522   13.9632 C.ar    1  UNL1        0.1354
      8 C          62.3339   85.7796   11.9674 C.3     1  UNL1        0.0751
      9 CA         60.6377   86.6250    8.4805 C.ar    1  UNL1        0.0948
     10 C          61.5487   85.8959    7.5379 C.ar    1  UNL1        0.0203
     11 C          62.7215   85.1280    8.0718 C.ar    1  UNL1        0.0028
     12 C          62.9832   85.0893    9.5483 C.ar    1  UNL1        0.0151
     13 C          62.0722   85.8183   10.4908 C.ar    1  UNL1        0.0635
     14 N          60.8994   86.5862    9.9569 N.ar    1  UNL1       -0.2482
     15 O          59.6029   88.8542    7.6382 O.co2   1  UNL1       -0.5430
     16 C          59.4649   87.3928    7.9466 C.2     1  UNL1        0.0905
     17 OXT        58.1542   86.6993    7.7211 O.co2   1  UNL1       -0.5430
     18 O          63.7024   85.3989   14.6098 O.3     1  UNL1       -0.4709
     19 C          64.6439   84.3429   14.1114 C.3     1  UNL1        0.2328
     20 C          64.1841   83.3532   13.0823 C.ar    1  UNL1        0.0319
     21 C          64.8694   83.2836   11.7499 C.ar    1  UNL1        0.0025
     22 C          64.4096   82.2940   10.7207 C.ar    1  UNL1        0.0295
     23 C          63.2644   81.3739   11.0240 C.ar    1  UNL1        0.1410
     24 F          62.8046   80.3843    9.9948 F       1  UNL1       -0.2041
     25 C          62.5791   81.4435   12.3564 C.ar    1  UNL1        0.0408
     26 C          63.0389   82.4331   13.3856 C.ar    1  UNL1        0.0594
     27 CL         62.3535   82.5027   14.7181 Cl      1  UNL1       -0.0824
@<TRIPOS>UNITY_ATOM_ATTR
17 1
charge -1
@<TRIPOS>BOND
     1    15    16   ar
     2    16    17   ar
     3    16     9    1
     4     9    10   ar
     5    10    11   ar
     6    11    12   ar
     7    12    13   ar
     8    13     8    1
     9     8     1    1
    10     1     2   ar
    11     2     3   ar
    12     3     4    1
    13     3     5   ar
    14     5     6   ar
    15     6     7   ar
    16     7    18    1
    17    18    19    1
    18    19    20    1
    19    20    21   ar
    20    21    22   ar
    21    22    23   ar
    22    23    24    1
    23    23    25   ar
    24    25    26   ar
    25    26    27    1
    26    13    14   ar
    27    14     9   ar
    28     7     1   ar
    29    26    20   ar
@<TRIPOS>MOLECULE
*****
 27 29 0 0 0
SMALL
GASTEIGER

@<TRIPOS>ATOM
      1 C          62.1971   86.2655   10.3739 C.ar    1  UNL1        0.0186
      2 C          61.2732   85.7938    9.2903 C.ar    1  UNL1        0.0105
      3 C          60.2173   86.7134    8.7521 C.ar    1  UNL1        0.0576
      4 CL         59.2935   86.2418    7.6686 Cl      1  UNL1       -0.0823
      5 C          60.0853   88.1045    9.2975 C.ar    1  UNL1        0.0145
      6 C          61.0091   88.5761   10.3810 C.ar    1  UNL1        0.0375
      7 C          62.0650   87.6566   10.9192 C.ar    1  UNL1        0.1354
      8 C          63.2529   85.3460   10.9121 C.3     1  UNL1        0.0751
      9 CA         62.2749   82.5365   13.5390 C.ar    1  UNL1        0.0948
     10 C          62.6071   83.2264   14.8288 C.ar    1  UNL1        0.0203
     11 C          63.1546   84.6229   14.8130 C.ar    1  UNL1        0.0028
     12 C          63.3699   85.3294   13.5075 C.ar    1  UNL1        0.0151
     13 C          63.0377   84.6395   12.2177 C.ar    1  UNL1        0.0635
     14 N          62.4901   83.2431   12.2334 N.ar    1  UNL1       -0.2482
     15 O          62.4484   80.0436   12.8283 O.co2   1  UNL1       -0.5430
     16 C          61.7274   81.1401   13.5547 C.2     1  UNL1        0.0905
     17 OXT        60.4588   80.8402   14.2968 O.co2   1  UNL1       -0.5430
     18 O          62.9889   88.1283   12.0028 O.3     1  UNL1       -0.4709
     19 C          62.7315   89.4357   12.6914 C.3     1  UNL1        0.2328
     20 C          63.8689   90.3726   12.9715 C.ar    1  UNL1        0.0319
     21 C          64.2488   91.4142   11.9613 C.ar    1  UNL1        0.0025
     22 C          65.3863   92.3511   12.2413 C.ar    1  UNL1        0.0295
     23 C          66.1439   92.2463   13.5316 C.ar    1  UNL1        0.1410
     24 F          67.2814   93.1832   13.8117 F       1  UNL1       -0.2041
     25 C          65.7641   91.2046   14.5419 C.ar    1  UNL1        0.0408
     26 C          64.6266   90.2678   14.2618 C.ar    1  UNL1        0.0594
     27 CL         64.2468   89.2260   15.2721 Cl      1  UNL1       -0.0824
@<TRIPOS>UNITY_ATOM_ATTR
17 1
charge -1
@<TRIPOS>BOND
     1    15    16   ar
     2    16    17   ar
     3    16     9    1
     4     9    10   ar
     5    10    11   ar
     6    11    12   ar
     7    12    13   ar
     8    13     8    1
     9     8     1    1
    10     1     2   ar
    11     2     3   ar
    12     3     4    1
    13     3     5   ar
    14     5     6   ar
    15     6     7   ar
    16     7    18    1
    17    18    19    1
    18    19    20    1
    19    20    21   ar
    20    21    22   ar
    21    22    23   ar
    22    23    24    1
    23    23    25   ar
    24    25    26   ar
    25    26    27    1
    26    13    14   ar
    27    14     9   ar
    28     7     1   ar
    29    26    20   ar
