@<TRIPOS>MOLECULE
*****
 46 50 0 0 0
SMALL
GASTEIGER

@<TRIPOS>ATOM
      1 C          60.7530   86.9088    9.3427 C.3     1  UNL1        0.0964
      2 C          59.9013   86.0779    8.4293 C.3     1  UNL1        0.0780
      3 N          58.9182   86.7413    7.5109 N.3     1  UNL1       -0.2970
      4 C          58.7868   88.2355    7.5060 C.3     1  UNL1        0.0689
      5 C          59.6386   89.0663    8.4193 C.3     1  UNL1        0.0220
      6 C          60.6217   88.4030    9.3377 C.3     1  UNL1        0.0337
      7 H          57.9987   86.3656    7.7430 H       1  UNL1        0.1233
      8 C          61.4734   89.2338   10.2510 C.ar    1  UNL1       -0.0217
      9 C          62.6815   89.9413    9.7126 C.ar    1  UNL1       -0.0012
     10 C          63.5333   90.7721   10.6260 C.ar    1  UNL1        0.0366
     11 C          63.1769   90.8955   12.0778 C.ar    1  UNL1        0.1387
     12 C          61.9688   90.1880   12.6162 C.ar    1  UNL1        0.0366
     13 C          61.1171   89.3572   11.7028 C.ar    1  UNL1       -0.0012
     14 O          64.0287   91.7263   12.9911 O.3     1  UNL1       -0.4714
     15 C          65.4555   92.0149   12.6297 C.3     1  UNL1        0.2525
     16 C          66.0222   93.3863   12.8491 C.3     1  UNL1        0.2525
     17 O          67.1811   93.8600   12.0229 O.3     1  UNL1       -0.4697
     18 C          66.9358   94.6086   10.7464 C.ar    1  UNL1        0.1596
     19 C          66.3426   95.9857   10.7867 C.ar    1  UNL1        0.0921
     20 CL         65.9947   96.6142   12.1035 Cl      1  UNL1       -0.0791
     21 C          66.0973   96.7343    9.5103 C.ar    1  UNL1        0.0103
     22 C          66.4452   96.1059    8.1935 C.ar    1  UNL1       -0.0200
     23 C          66.1999   96.8545    6.9170 C.3     1  UNL1        0.0311
     24 C          67.0384   94.7287    8.1531 C.ar    1  UNL1        0.0103
     25 C          67.2837   93.9801    9.4296 C.ar    1  UNL1        0.0921
     26 CL         67.8769   92.6030    9.3892 Cl      1  UNL1       -0.0791
     27 N          62.7435   85.2800    9.7103 N.am    1  UNL1       -0.2770
     28 C          61.7362   86.2453   10.2610 C.2     1  UNL1        0.2270
     29 O          61.7119   86.5472   11.7301 O.2     1  UNL1       -0.2748
     30 C          62.7678   84.9781    8.2412 C.3     1  UNL1        0.0758
     31 C          63.5111   84.9167    6.9398 C.3     1  UNL1        0.0215
     32 C          62.0666   84.5165    6.9981 C.3     1  UNL1        0.0215
     33 C          63.7267   84.6166   10.6287 C.3     1  UNL1        0.1209
     34 C          62.5526   83.5058   14.2532 C.ar    1  UNL1       -0.0028
     35 C          62.2588   82.0529   14.0232 C.ar    1  UNL1       -0.0018
     36 C          62.4544   81.4546   12.6617 C.ar    1  UNL1        0.0109
     37 C          62.9437   82.3092   11.5301 C.ar    1  UNL1        0.0553
     38 CL         63.1393   81.7109   10.1686 Cl      1  UNL1       -0.0825
     39 C          63.2374   83.7620   11.7602 C.ar    1  UNL1        0.0080
     40 C          63.0419   84.3603   13.1217 C.ar    1  UNL1       -0.0044
     41 C          62.3570   84.1041   15.6147 C.3     1  UNL1        0.1163
     42 C          63.1390   87.6919   17.1202 C.3     1  UNL1        0.0946
     43 C          62.3940   86.4489   16.7331 C.2     1  UNL1        0.2232
     44 O          60.9409   86.3075   17.0775 O.2     1  UNL1       -0.2751
     45 N          63.1021   85.3472   16.0018 N.am    1  UNL1       -0.3004
     46 H          64.0558   85.4399   15.7758 H       1  UNL1        0.1497
@<TRIPOS>BOND
     1    42    43    1
     2    43    44    2
     3    43    45   am
     4    45    41    1
     5    41    34    1
     6    34    35   ar
     7    35    36   ar
     8    36    37   ar
     9    37    38    1
    10    37    39   ar
    11    39    33    1
    12    33    27    1
    13    27    28   am
    14    28    29    2
    15     1    28    1
    16     1     2    1
    17     2     3    1
    18     3     4    1
    19     4     5    1
    20     5     6    1
    21     6     8    1
    22     8     9   ar
    23     9    10   ar
    24    10    11   ar
    25    11    14    1
    26    14    15    1
    27    15    16    1
    28    16    17    1
    29    17    18    1
    30    18    19   ar
    31    19    20    1
    32    19    21   ar
    33    21    22   ar
    34    22    23    1
    35    22    24   ar
    36    24    25   ar
    37    25    26    1
    38    11    12   ar
    39    12    13   ar
    40    27    30    1
    41    30    31    1
    42    31    32    1
    43    39    40   ar
    44    40    34   ar
    45     6     1    1
    46    13     8   ar
    47    32    30    1
    48    25    18   ar
    49    45    46    1
    50     3     7    1
@<TRIPOS>MOLECULE
*****
 46 50 0 0 0
SMALL
GASTEIGER

@<TRIPOS>ATOM
      1 C          61.0697   88.7243    9.3829 C.3     1  UNL1        0.0964
      2 C          60.2732   89.9038    8.9094 C.3     1  UNL1        0.0780
      3 N          59.3040   89.7478    7.7753 N.3     1  UNL1       -0.2970
      4 C          59.1313   88.4123    7.1147 C.3     1  UNL1        0.0689
      5 C          59.9278   87.2328    7.5882 C.3     1  UNL1        0.0220
      6 C          60.8971   87.3888    8.7223 C.3     1  UNL1        0.0337
      7 H          59.5946   90.4009    7.0477 H       1  UNL1        0.1233
      8 C          61.6936   86.2092    9.1958 C.ar    1  UNL1       -0.0217
      9 C          61.5329   85.7112   10.6015 C.ar    1  UNL1       -0.0012
     10 C          62.3294   84.5317   11.0750 C.ar    1  UNL1        0.0366
     11 C          63.2867   83.8501   10.1428 C.ar    1  UNL1        0.1387
     12 C          63.4474   84.3481    8.7370 C.ar    1  UNL1        0.0366
     13 C          62.6509   85.5277    8.2635 C.ar    1  UNL1       -0.0012
     14 O          64.0832   82.6706   10.6162 O.3     1  UNL1       -0.4714
     15 C          63.4690   81.6817   11.5621 C.3     1  UNL1        0.2525
     16 C          63.7427   81.7814   13.0335 C.3     1  UNL1        0.2525
     17 O          64.6055   82.8886   13.5625 O.3     1  UNL1       -0.4697
     18 C          64.0512   83.8582   14.5638 C.ar    1  UNL1        0.1596
     19 C          64.8773   85.0268   15.0130 C.ar    1  UNL1        0.0921
     20 CL         66.2577   85.2259   14.4608 Cl      1  UNL1       -0.0791
     21 C          64.3230   85.9965   16.0143 C.ar    1  UNL1        0.0103
     22 C          62.9427   85.7974   16.5664 C.ar    1  UNL1       -0.0200
     23 C          62.3884   86.7671   17.5677 C.3     1  UNL1        0.0311
     24 C          62.1165   84.6287   16.1173 C.ar    1  UNL1        0.0103
     25 C          62.6708   83.6591   15.1160 C.ar    1  UNL1        0.0921
     26 CL         61.8447   82.4905   14.6669 Cl      1  UNL1       -0.0791
     27 N          61.5628   89.3869   11.8462 N.am    1  UNL1       -0.2770
     28 C          62.0390   88.8804   10.5171 C.2     1  UNL1        0.2270
     29 O          63.4843   88.5298   10.3220 O.2     1  UNL1       -0.2748
     30 C          60.1175   89.7374   12.0413 C.3     1  UNL1        0.0758
     31 C          58.7508   89.3801   12.5457 C.3     1  UNL1        0.0215
     32 C          58.9808   90.7018   11.8747 C.3     1  UNL1        0.0215
     33 C          62.5321   89.5429   12.9804 C.3     1  UNL1        0.1209
     34 C          64.9443   92.3396   11.5279 C.ar    1  UNL1       -0.0028
     35 C          65.9495   92.4502   12.6358 C.ar    1  UNL1       -0.0018
     36 C          65.8156   91.5917   13.8585 C.ar    1  UNL1        0.0109
     37 C          64.6764   90.6226   13.9733 C.ar    1  UNL1        0.0553
     38 CL         64.5425   89.7641   15.1961 Cl      1  UNL1       -0.0825
     39 C          63.6712   90.5120   12.8655 C.ar    1  UNL1        0.0080
     40 C          63.8052   91.3705   11.6428 C.ar    1  UNL1       -0.0044
     41 C          65.0782   93.1981   10.3052 C.3     1  UNL1        0.1163
     42 C          66.8098   96.7659   10.4569 C.3     1  UNL1        0.0946
     43 C          66.6276   95.2837   10.3163 C.2     1  UNL1        0.2232
     44 O          67.8127   94.4046   10.0460 O.2     1  UNL1       -0.2751
     45 N          65.2604   94.6804   10.4459 N.am    1  UNL1       -0.3004
     46 H          64.4826   95.2573   10.6232 H       1  UNL1        0.1497
@<TRIPOS>BOND
     1    42    43    1
     2    43    44    2
     3    43    45   am
     4    45    41    1
     5    41    34    1
     6    34    35   ar
     7    35    36   ar
     8    36    37   ar
     9    37    38    1
    10    37    39   ar
    11    39    33    1
    12    33    27    1
    13    27    28   am
    14    28    29    2
    15     1    28    1
    16     1     2    1
    17     2     3    1
    18     3     4    1
    19     4     5    1
    20     5     6    1
    21     6     8    1
    22     8     9   ar
    23     9    10   ar
    24    10    11   ar
    25    11    14    1
    26    14    15    1
    27    15    16    1
    28    16    17    1
    29    17    18    1
    30    18    19   ar
    31    19    20    1
    32    19    21   ar
    33    21    22   ar
    34    22    23    1
    35    22    24   ar
    36    24    25   ar
    37    25    26    1
    38    11    12   ar
    39    12    13   ar
    40    27    30    1
    41    30    31    1
    42    31    32    1
    43    39    40   ar
    44    40    34   ar
    45     6     1    1
    46    13     8   ar
    47    32    30    1
    48    25    18   ar
    49    45    46    1
    50     3     7    1
@<TRIPOS>MOLECULE
*****
 46 50 0 0 0
SMALL
GASTEIGER

@<TRIPOS>ATOM
      1 C          61.2816   88.6783   10.5810 C.3     1  UNL1        0.0964
      2 C          60.5591   89.9805   10.4012 C.3     1  UNL1        0.0780
      3 N          59.7461   90.2225    9.1641 N.3     1  UNL1       -0.2970
      4 C          59.6557   89.1623    8.1068 C.3     1  UNL1        0.0689
      5 C          60.3783   87.8602    8.2866 C.3     1  UNL1        0.0220
      6 C          61.1912   87.6182    9.5238 C.3     1  UNL1        0.0337
      7 H          60.1324   91.0533    8.7157 H       1  UNL1        0.1233
      8 C          61.9137   86.3160    9.7036 C.ar    1  UNL1       -0.0217
      9 C          62.8557   85.8283    8.6431 C.ar    1  UNL1       -0.0012
     10 C          63.5782   84.5261    8.8230 C.ar    1  UNL1        0.0366
     11 C          63.3588   83.7117   10.0634 C.ar    1  UNL1        0.1387
     12 C          62.4168   84.1995   11.1239 C.ar    1  UNL1        0.0366
     13 C          61.6943   85.5016   10.9440 C.ar    1  UNL1       -0.0012
     14 O          64.0813   82.4096   10.2432 O.3     1  UNL1       -0.4714
     15 C          63.4908   81.3378   11.1107 C.3     1  UNL1        0.2525
     16 C          63.7088   81.3689   12.5944 C.3     1  UNL1        0.2525
     17 O          64.5733   82.4329   13.2033 O.3     1  UNL1       -0.4697
     18 C          64.0006   83.3720   14.2231 C.ar    1  UNL1        0.1596
     19 C          62.6377   83.1173   14.7954 C.ar    1  UNL1        0.0921
     20 CL         61.8475   81.9235   14.3479 Cl      1  UNL1       -0.0791
     21 C          62.0651   84.0564   15.8153 C.ar    1  UNL1        0.0103
     22 C          62.8553   85.2503   16.2628 C.ar    1  UNL1       -0.0200
     23 C          62.2826   86.1894   17.2826 C.3     1  UNL1        0.0311
     24 C          64.2183   85.5050   15.6905 C.ar    1  UNL1        0.0103
     25 C          64.7909   84.5659   14.6707 C.ar    1  UNL1        0.0921
     26 CL         66.1539   84.8205   14.0984 Cl      1  UNL1       -0.0791
     27 N          63.2143   89.3688   12.1742 N.am    1  UNL1       -0.2770
     28 C          62.0945   88.4364   11.8183 C.2     1  UNL1        0.2270
     29 O          61.7877   87.2619   12.6995 O.2     1  UNL1       -0.2748
     30 C          63.5211   90.5432   11.2930 C.3     1  UNL1        0.0758
     31 C          63.3639   91.2630    9.9864 C.3     1  UNL1        0.0215
     32 C          64.2097   91.8575   11.0732 C.3     1  UNL1        0.0215
     33 C          64.0272   89.1268   13.4114 C.3     1  UNL1        0.1209
     34 C          65.9025   92.4231   14.5808 C.ar    1  UNL1       -0.0028
     35 C          65.3357   92.5981   15.9586 C.ar    1  UNL1       -0.0018
     36 C          64.3327   91.6160   16.4872 C.ar    1  UNL1        0.0109
     37 C          63.8966   90.4588   15.6381 C.ar    1  UNL1        0.0553
     38 CL         62.8936   89.4767   16.1668 Cl      1  UNL1       -0.0825
     39 C          64.4634   90.2839   14.2604 C.ar    1  UNL1        0.0080
     40 C          65.4664   91.2660   13.7318 C.ar    1  UNL1       -0.0044
     41 C          66.9055   93.4052   14.0522 C.3     1  UNL1        0.1163
     42 C          66.4542   95.0181   10.4542 C.3     1  UNL1        0.0946
     43 C          66.8446   94.0574   11.5380 C.2     1  UNL1        0.2232
     44 O          67.5646   92.7878   11.1913 O.2     1  UNL1       -0.2751
     45 N          66.5151   94.3660   12.9684 N.am    1  UNL1       -0.3004
     46 H          66.0426   95.1992   13.1959 H       1  UNL1        0.1497
@<TRIPOS>BOND
     1    42    43    1
     2    43    44    2
     3    43    45   am
     4    45    41    1
     5    41    34    1
     6    34    35   ar
     7    35    36   ar
     8    36    37   ar
     9    37    38    1
    10    37    39   ar
    11    39    33    1
    12    33    27    1
    13    27    28   am
    14    28    29    2
    15     1    28    1
    16     1     2    1
    17     2     3    1
    18     3     4    1
    19     4     5    1
    20     5     6    1
    21     6     8    1
    22     8     9   ar
    23     9    10   ar
    24    10    11   ar
    25    11    14    1
    26    14    15    1
    27    15    16    1
    28    16    17    1
    29    17    18    1
    30    18    19   ar
    31    19    20    1
    32    19    21   ar
    33    21    22   ar
    34    22    23    1
    35    22    24   ar
    36    24    25   ar
    37    25    26    1
    38    11    12   ar
    39    12    13   ar
    40    27    30    1
    41    30    31    1
    42    31    32    1
    43    39    40   ar
    44    40    34   ar
    45     6     1    1
    46    13     8   ar
    47    32    30    1
    48    25    18   ar
    49    45    46    1
    50     3     7    1
@<TRIPOS>MOLECULE
*****
 46 50 0 0 0
SMALL
GASTEIGER

@<TRIPOS>ATOM
      1 C          63.5189   86.8635   13.1017 C.3     1  UNL1        0.0964
      2 C          64.3220   86.3567   14.2628 C.3     1  UNL1        0.0780
      3 N          64.4141   84.8826   14.5245 N.3     1  UNL1       -0.2970
      4 C          63.7031   83.9153   13.6252 C.3     1  UNL1        0.0689
      5 C          62.9000   84.4222   12.4641 C.3     1  UNL1        0.0220
      6 C          62.8079   85.8963   12.2024 C.3     1  UNL1        0.0337
      7 H          64.0546   84.7277   15.4664 H       1  UNL1        0.1233
      8 C          62.0048   86.4031   11.0413 C.ar    1  UNL1       -0.0217
      9 C          60.8241   87.2971   11.2793 C.ar    1  UNL1       -0.0012
     10 C          60.0210   87.8040   10.1182 C.ar    1  UNL1        0.0366
     11 C          60.3985   87.4168    8.7191 C.ar    1  UNL1        0.1387
     12 C          61.5792   86.5228    8.4811 C.ar    1  UNL1        0.0366
     13 C          62.3824   86.0160    9.6422 C.ar    1  UNL1       -0.0012
     14 O          59.5954   87.9237    7.5580 O.3     1  UNL1       -0.4714
     15 C          59.5907   89.3876    7.2314 C.3     1  UNL1        0.2525
     16 C          59.7816   89.8405    5.8142 C.3     1  UNL1        0.2525
     17 O          60.8781   90.8069    5.4769 O.3     1  UNL1       -0.4697
     18 C          60.8399   91.5623    4.1815 C.ar    1  UNL1        0.1596
     19 C          62.0462   91.5845    3.2903 C.ar    1  UNL1        0.0921
     20 CL         63.2908   90.8513    3.6945 Cl      1  UNL1       -0.0791
     21 C          62.0079   92.3399    1.9950 C.ar    1  UNL1        0.0103
     22 C          60.7633   93.0731    1.5909 C.ar    1  UNL1       -0.0200
     23 C          60.7250   93.8285    0.2955 C.3     1  UNL1        0.0311
     24 C          59.5569   93.0509    2.4821 C.ar    1  UNL1        0.0103
     25 C          59.5952   92.2955    3.7774 C.ar    1  UNL1        0.0921
     26 CL         58.3889   92.2733    4.6686 Cl      1  UNL1       -0.0791
     27 N          63.3076   89.2970   13.9870 N.am    1  UNL1       -0.2770
     28 C          63.4268   88.3377   12.8401 C.2     1  UNL1        0.2270
     29 O          63.4538   88.8525   11.4314 O.2     1  UNL1       -0.2748
     30 C          63.2806   88.7822   15.3956 C.3     1  UNL1        0.0758
     31 C          63.2439   89.0408   16.8727 C.3     1  UNL1        0.0215
     32 C          63.2704   87.6320   16.3583 C.3     1  UNL1        0.0215
     33 C          63.2155   90.7712   13.7253 C.3     1  UNL1        0.1209
     34 C          65.9355   92.5905   11.4800 C.ar    1  UNL1       -0.0028
     35 C          66.8896   93.0780   12.5298 C.ar    1  UNL1       -0.0018
     36 C          66.6190   92.7966   13.9781 C.ar    1  UNL1        0.0109
     37 C          65.3942   92.0276   14.3766 C.ar    1  UNL1        0.0553
     38 CL         65.1236   91.7462   15.8249 Cl      1  UNL1       -0.0825
     39 C          64.4402   91.5401   13.3268 C.ar    1  UNL1        0.0080
     40 C          64.7108   91.8215   11.8785 C.ar    1  UNL1       -0.0044
     41 C          66.2061   92.8719   10.0317 C.3     1  UNL1        0.1163
     42 C          67.4955   96.4007    8.7530 C.3     1  UNL1        0.0946
     43 C          67.4993   94.9875    9.2558 C.2     1  UNL1        0.2232
     44 O          68.8001   94.2767    9.4856 O.2     1  UNL1       -0.2751
     45 N          66.2023   94.2852    9.5288 N.am    1  UNL1       -0.3004
     46 H          65.3486   94.7517    9.3780 H       1  UNL1        0.1497
@<TRIPOS>BOND
     1    42    43    1
     2    43    44    2
     3    43    45   am
     4    45    41    1
     5    41    34    1
     6    34    35   ar
     7    35    36   ar
     8    36    37   ar
     9    37    38    1
    10    37    39   ar
    11    39    33    1
    12    33    27    1
    13    27    28   am
    14    28    29    2
    15     1    28    1
    16     1     2    1
    17     2     3    1
    18     3     4    1
    19     4     5    1
    20     5     6    1
    21     6     8    1
    22     8     9   ar
    23     9    10   ar
    24    10    11   ar
    25    11    14    1
    26    14    15    1
    27    15    16    1
    28    16    17    1
    29    17    18    1
    30    18    19   ar
    31    19    20    1
    32    19    21   ar
    33    21    22   ar
    34    22    23    1
    35    22    24   ar
    36    24    25   ar
    37    25    26    1
    38    11    12   ar
    39    12    13   ar
    40    27    30    1
    41    30    31    1
    42    31    32    1
    43    39    40   ar
    44    40    34   ar
    45     6     1    1
    46    13     8   ar
    47    32    30    1
    48    25    18   ar
    49    45    46    1
    50     3     7    1
@<TRIPOS>MOLECULE
*****
 46 50 0 0 0
SMALL
GASTEIGER

@<TRIPOS>ATOM
      1 C          60.4068   87.1520    9.4210 C.3     1  UNL1        0.0964
      2 C          59.5459   86.2924    8.5435 C.3     1  UNL1        0.0780
      3 N          58.7376   86.9155    7.4442 N.3     1  UNL1       -0.2970
      4 C          58.7901   88.3980    7.2225 C.3     1  UNL1        0.0689
      5 C          59.6510   89.2576    8.1001 C.3     1  UNL1        0.0220
      6 C          60.4593   88.6345    9.1993 C.3     1  UNL1        0.0337
      7 H          57.7621   86.6793    7.6259 H       1  UNL1        0.1233
      8 C          61.3202   89.4941   10.0769 C.ar    1  UNL1       -0.0217
      9 C          61.0483   89.5712   11.5500 C.ar    1  UNL1       -0.0012
     10 C          61.9092   90.4307   12.4276 C.ar    1  UNL1        0.0366
     11 C          63.0419   91.2131   11.8320 C.ar    1  UNL1        0.1387
     12 C          63.3138   91.1360   10.3589 C.ar    1  UNL1        0.0366
     13 C          62.4529   90.2765    9.4813 C.ar    1  UNL1       -0.0012
     14 O          63.9028   92.0727   12.7096 O.3     1  UNL1       -0.4714
     15 C          64.7597   91.4432   13.7675 C.3     1  UNL1        0.2525
     16 C          65.8126   92.2555   14.4615 C.3     1  UNL1        0.2525
     17 O          66.5517   93.3235   13.7110 O.3     1  UNL1       -0.4697
     18 C          67.1091   93.0339   12.3488 C.ar    1  UNL1        0.1596
     19 C          66.5681   93.7529   11.1487 C.ar    1  UNL1        0.0921
     20 CL         65.4698   94.7615   11.3107 Cl      1  UNL1       -0.0791
     21 C          67.1256   93.4633    9.7866 C.ar    1  UNL1        0.0103
     22 C          68.2239   92.4548    9.6245 C.ar    1  UNL1       -0.0200
     23 C          68.7813   92.1652    8.2624 C.3     1  UNL1        0.0311
     24 C          68.7649   91.7357   10.8247 C.ar    1  UNL1        0.0103
     25 C          68.2075   92.0253   12.1868 C.ar    1  UNL1        0.0921
     26 CL         68.7485   91.3063   13.3870 Cl      1  UNL1       -0.0791
     27 N          62.3890   85.6569   10.1863 N.am    1  UNL1       -0.2770
     28 C          61.2151   86.5289   10.5203 C.2     1  UNL1        0.2270
     29 O          60.8495   86.7778   11.9536 O.2     1  UNL1       -0.2748
     30 C          62.7547   85.4080    8.7530 C.3     1  UNL1        0.0758
     31 C          62.3591   85.0114    7.3615 C.3     1  UNL1        0.0215
     32 C          63.7834   85.3736    7.6619 C.3     1  UNL1        0.0215
     33 C          63.1974   85.0338   11.2856 C.3     1  UNL1        0.1209
     34 C          61.9841   81.7098   13.0824 C.ar    1  UNL1       -0.0028
     35 C          62.6854   80.6703   12.2590 C.ar    1  UNL1       -0.0018
     36 C          63.5573   81.0854   11.1112 C.ar    1  UNL1        0.0109
     37 C          63.7280   82.5400   10.7867 C.ar    1  UNL1        0.0553
     38 CL         64.5999   82.9551    9.6389 Cl      1  UNL1       -0.0825
     39 C          63.0267   83.5793   11.6101 C.ar    1  UNL1        0.0080
     40 C          62.1548   83.1643   12.7579 C.ar    1  UNL1       -0.0044
     41 C          61.1122   81.2947   14.2302 C.3     1  UNL1        0.1163
     42 C          58.6566   78.1943   14.5581 C.3     1  UNL1        0.0946
     43 C          59.1503   79.6076   14.4641 C.2     1  UNL1        0.2232
     44 O          58.1759   80.7471   14.5101 O.2     1  UNL1       -0.2751
     45 N          60.6185   79.8814   14.3241 N.am    1  UNL1       -0.3004
     46 H          61.2580   79.1335   14.2939 H       1  UNL1        0.1497
@<TRIPOS>BOND
     1    42    43    1
     2    43    44    2
     3    43    45   am
     4    45    41    1
     5    41    34    1
     6    34    35   ar
     7    35    36   ar
     8    36    37   ar
     9    37    38    1
    10    37    39   ar
    11    39    33    1
    12    33    27    1
    13    27    28   am
    14    28    29    2
    15     1    28    1
    16     1     2    1
    17     2     3    1
    18     3     4    1
    19     4     5    1
    20     5     6    1
    21     6     8    1
    22     8     9   ar
    23     9    10   ar
    24    10    11   ar
    25    11    14    1
    26    14    15    1
    27    15    16    1
    28    16    17    1
    29    17    18    1
    30    18    19   ar
    31    19    20    1
    32    19    21   ar
    33    21    22   ar
    34    22    23    1
    35    22    24   ar
    36    24    25   ar
    37    25    26    1
    38    11    12   ar
    39    12    13   ar
    40    27    30    1
    41    30    31    1
    42    31    32    1
    43    39    40   ar
    44    40    34   ar
    45     6     1    1
    46    13     8   ar
    47    32    30    1
    48    25    18   ar
    49    45    46    1
    50     3     7    1
@<TRIPOS>MOLECULE
*****
 46 50 0 0 0
SMALL
GASTEIGER

@<TRIPOS>ATOM
      1 C          61.1061   88.7903   10.4667 C.3     1  UNL1        0.0964
      2 C          60.3111   90.0598   10.3884 C.3     1  UNL1        0.0780
      3 N          59.5053   90.3657    9.1608 N.3     1  UNL1       -0.2970
      4 C          59.4946   89.4019    8.0114 C.3     1  UNL1        0.0689
      5 C          60.2896   88.1324    8.0897 C.3     1  UNL1        0.0220
      6 C          61.0954   87.8265    9.3174 C.3     1  UNL1        0.0337
      7 H          59.8491   91.2543    8.7967 H       1  UNL1        0.1233
      8 C          61.8904   86.5570    9.3957 C.ar    1  UNL1       -0.0217
      9 C          61.8617   85.7300   10.6468 C.ar    1  UNL1       -0.0012
     10 C          62.6568   84.4605   10.7251 C.ar    1  UNL1        0.0366
     11 C          63.4805   84.0179    9.5523 C.ar    1  UNL1        0.1387
     12 C          63.5092   84.8448    8.3012 C.ar    1  UNL1        0.0366
     13 C          62.7142   86.1144    8.2229 C.ar    1  UNL1       -0.0012
     14 O          64.2755   82.7483    9.6306 O.3     1  UNL1       -0.4714
     15 C          64.7027   82.2119   10.9647 C.3     1  UNL1        0.2525
     16 C          63.8513   82.4504   12.1764 C.3     1  UNL1        0.2525
     17 O          64.4880   82.5635   13.5299 O.3     1  UNL1       -0.4697
     18 C          63.9569   83.5486   14.5286 C.ar    1  UNL1        0.1596
     19 C          64.7928   84.7242   14.9400 C.ar    1  UNL1        0.0921
     20 CL         66.1598   84.9146   14.3526 Cl      1  UNL1       -0.0791
     21 C          64.2617   85.7094   15.9387 C.ar    1  UNL1        0.0103
     22 C          62.8947   85.5189   16.5260 C.ar    1  UNL1       -0.0200
     23 C          62.3636   86.5041   17.5247 C.3     1  UNL1        0.0311
     24 C          62.0587   84.3433   16.1146 C.ar    1  UNL1        0.0103
     25 C          62.5898   83.3582   15.1159 C.ar    1  UNL1        0.0921
     26 CL         61.7539   82.1826   14.7046 Cl      1  UNL1       -0.0791
     27 N          63.0790   89.3525   12.0610 N.am    1  UNL1       -0.2770
     28 C          61.9119   88.4845   11.6945 C.2     1  UNL1        0.2270
     29 O          61.5505   87.3106   12.5556 O.2     1  UNL1       -0.2748
     30 C          63.4403   90.5263   11.1999 C.3     1  UNL1        0.0758
     31 C          64.3156   91.7120   10.9208 C.3     1  UNL1        0.0215
     32 C          63.1910   91.3737    9.9876 C.3     1  UNL1        0.0215
     33 C          63.8848   89.0467   13.2888 C.3     1  UNL1        0.1209
     34 C          65.5731   92.3076   14.7940 C.ar    1  UNL1       -0.0028
     35 C          64.9519   92.3442   16.1588 C.ar    1  UNL1       -0.0018
     36 C          63.9749   91.2817   16.5670 C.ar    1  UNL1        0.0109
     37 C          63.6192   90.1825   15.6102 C.ar    1  UNL1        0.0553
     38 CL         62.6423   89.1199   16.0183 Cl      1  UNL1       -0.0825
     39 C          64.2405   90.1459   14.2454 C.ar    1  UNL1        0.0080
     40 C          65.2174   91.2084   13.8373 C.ar    1  UNL1       -0.0044
     41 C          66.5501   93.3701   14.3859 C.3     1  UNL1        0.1163
     42 C          69.9241   94.0960   16.3453 C.3     1  UNL1        0.0946
     43 C          68.9606   93.5372   15.3406 C.2     1  UNL1        0.2232
     44 O          69.4442   92.5866   14.2858 O.2     1  UNL1       -0.2751
     45 N          67.5135   93.9290   15.3906 N.am    1  UNL1       -0.3004
     46 H          67.1961   94.5529   16.0829 H       1  UNL1        0.1497
@<TRIPOS>BOND
     1    42    43    1
     2    43    44    2
     3    43    45   am
     4    45    41    1
     5    41    34    1
     6    34    35   ar
     7    35    36   ar
     8    36    37   ar
     9    37    38    1
    10    37    39   ar
    11    39    33    1
    12    33    27    1
    13    27    28   am
    14    28    29    2
    15     1    28    1
    16     1     2    1
    17     2     3    1
    18     3     4    1
    19     4     5    1
    20     5     6    1
    21     6     8    1
    22     8     9   ar
    23     9    10   ar
    24    10    11   ar
    25    11    14    1
    26    14    15    1
    27    15    16    1
    28    16    17    1
    29    17    18    1
    30    18    19   ar
    31    19    20    1
    32    19    21   ar
    33    21    22   ar
    34    22    23    1
    35    22    24   ar
    36    24    25   ar
    37    25    26    1
    38    11    12   ar
    39    12    13   ar
    40    27    30    1
    41    30    31    1
    42    31    32    1
    43    39    40   ar
    44    40    34   ar
    45     6     1    1
    46    13     8   ar
    47    32    30    1
    48    25    18   ar
    49    45    46    1
    50     3     7    1
@<TRIPOS>MOLECULE
*****
 46 50 0 0 0
SMALL
GASTEIGER

@<TRIPOS>ATOM
      1 C          62.8844   84.2310   11.3970 C.3     1  UNL1        0.0964
      2 C          63.0187   83.2982   10.2299 C.3     1  UNL1        0.0780
      3 N          63.9520   82.1267   10.3097 N.3     1  UNL1       -0.2970
      4 C          64.7511   81.8880   11.5564 C.3     1  UNL1        0.0689
      5 C          64.6168   82.8208   12.7234 C.3     1  UNL1        0.0220
      6 C          63.6835   83.9923   12.6437 C.3     1  UNL1        0.0337
      7 H          64.6209   82.2307    9.5466 H       1  UNL1        0.1233
      8 C          63.5492   84.9250   13.8107 C.ar    1  UNL1       -0.0217
      9 C          62.6970   84.5408   14.9838 C.ar    1  UNL1       -0.0012
     10 C          62.5627   85.4735   16.1508 C.ar    1  UNL1        0.0366
     11 C          63.2807   86.7905   16.1448 C.ar    1  UNL1        0.1387
     12 C          64.1328   87.1748   14.9717 C.ar    1  UNL1        0.0366
     13 C          64.2671   86.2420   13.8047 C.ar    1  UNL1       -0.0012
     14 O          63.1464   87.7233   17.3118 O.3     1  UNL1       -0.4714
     15 C          63.1385   89.2066   17.0893 C.3     1  UNL1        0.2525
     16 C          63.0088   89.7559   15.6995 C.3     1  UNL1        0.2525
     17 O          63.3761   91.1831   15.4198 O.3     1  UNL1       -0.4697
     18 C          64.8190   91.5796   15.3154 C.ar    1  UNL1        0.1596
     19 C          65.4511   92.4018   16.3990 C.ar    1  UNL1        0.0921
     20 CL         64.6404   92.8277   17.5870 Cl      1  UNL1       -0.0791
     21 C          66.8940   92.7983   16.2947 C.ar    1  UNL1        0.0103
     22 C          67.7048   92.3724   15.1067 C.ar    1  UNL1       -0.0200
     23 C          69.1477   92.7689   15.0023 C.3     1  UNL1        0.0311
     24 C          67.0726   91.5501   14.0230 C.ar    1  UNL1        0.0103
     25 C          65.6297   91.1537   14.1274 C.ar    1  UNL1        0.0921
     26 CL         64.9976   90.3314   13.0438 Cl      1  UNL1       -0.0791
     27 N          61.6945   86.0687    9.9979 N.am    1  UNL1       -0.2770
     28 C          61.9510   85.4026   11.3172 C.2     1  UNL1        0.2270
     29 O          61.2741   85.9079   12.5567 O.2     1  UNL1       -0.2748
     30 C          62.3715   85.5633    8.7584 C.3     1  UNL1        0.0758
     31 C          63.6261   85.2875    7.9841 C.3     1  UNL1        0.0215
     32 C          62.2892   84.9639    7.3859 C.3     1  UNL1        0.0215
     33 C          60.7611   87.2402    9.9182 C.3     1  UNL1        0.1209
     34 C          62.8217   90.5749   10.5379 C.ar    1  UNL1       -0.0028
     35 C          61.9978   91.2218   11.6116 C.ar    1  UNL1       -0.0018
     36 C          60.7617   90.5415   12.1208 C.ar    1  UNL1        0.0109
     37 C          60.3495   89.2143   11.5563 C.ar    1  UNL1        0.0553
     38 CL         59.1134   88.5340   12.0655 Cl      1  UNL1       -0.0825
     39 C          61.1734   88.5674   10.4826 C.ar    1  UNL1        0.0080
     40 C          62.4094   89.2477    9.9734 C.ar    1  UNL1       -0.0044
     41 C          64.0578   91.2552   10.0287 C.3     1  UNL1        0.1163
     42 C          66.0428   94.5542   10.9909 C.3     1  UNL1        0.0946
     43 C          65.7581   93.1319   10.6090 C.2     1  UNL1        0.2232
     44 O          66.8892   92.1639   10.4253 O.2     1  UNL1       -0.2751
     45 N          64.3424   92.6776   10.4107 N.am    1  UNL1       -0.3004
     46 H          63.6001   93.3129   10.5312 H       1  UNL1        0.1497
@<TRIPOS>BOND
     1    42    43    1
     2    43    44    2
     3    43    45   am
     4    45    41    1
     5    41    34    1
     6    34    35   ar
     7    35    36   ar
     8    36    37   ar
     9    37    38    1
    10    37    39   ar
    11    39    33    1
    12    33    27    1
    13    27    28   am
    14    28    29    2
    15     1    28    1
    16     1     2    1
    17     2     3    1
    18     3     4    1
    19     4     5    1
    20     5     6    1
    21     6     8    1
    22     8     9   ar
    23     9    10   ar
    24    10    11   ar
    25    11    14    1
    26    14    15    1
    27    15    16    1
    28    16    17    1
    29    17    18    1
    30    18    19   ar
    31    19    20    1
    32    19    21   ar
    33    21    22   ar
    34    22    23    1
    35    22    24   ar
    36    24    25   ar
    37    25    26    1
    38    11    12   ar
    39    12    13   ar
    40    27    30    1
    41    30    31    1
    42    31    32    1
    43    39    40   ar
    44    40    34   ar
    45     6     1    1
    46    13     8   ar
    47    32    30    1
    48    25    18   ar
    49    45    46    1
    50     3     7    1
@<TRIPOS>MOLECULE
*****
 46 50 0 0 0
SMALL
GASTEIGER

@<TRIPOS>ATOM
      1 C          60.8011   86.5668    9.2286 C.3     1  UNL1        0.0964
      2 C          60.1515   85.9013    8.0517 C.3     1  UNL1        0.0780
      3 N          59.1984   86.6712    7.1865 N.3     1  UNL1       -0.2970
      4 C          58.8948   88.1067    7.4982 C.3     1  UNL1        0.0689
      5 C          59.5444   88.7722    8.6751 C.3     1  UNL1        0.0220
      6 C          60.4975   88.0023    9.5403 C.3     1  UNL1        0.0337
      7 H          58.3099   86.1707    7.2093 H       1  UNL1        0.1233
      8 C          61.1471   88.6678   10.7172 C.ar    1  UNL1       -0.0217
      9 C          62.6183   88.9594   10.6963 C.ar    1  UNL1       -0.0012
     10 C          63.2679   89.6249   11.8732 C.ar    1  UNL1        0.0366
     11 C          62.4462   89.9989   13.0710 C.ar    1  UNL1        0.1387
     12 C          60.9750   89.7074   13.0920 C.ar    1  UNL1        0.0366
     13 C          60.3255   89.0418   11.9151 C.ar    1  UNL1       -0.0012
     14 O          63.0958   90.6644   14.2480 O.3     1  UNL1       -0.4714
     15 C          63.9889   91.8514   14.0397 C.3     1  UNL1        0.2525
     16 C          65.4791   91.6841   14.0751 C.3     1  UNL1        0.2525
     17 O          66.3686   92.7709   13.5480 O.3     1  UNL1       -0.4697
     18 C          67.0086   92.6280   12.1989 C.ar    1  UNL1        0.1596
     19 C          68.3449   91.9589   12.0699 C.ar    1  UNL1        0.0921
     20 CL         69.0412   91.4329   13.2899 Cl      1  UNL1       -0.0791
     21 C          68.9849   91.8160   10.7208 C.ar    1  UNL1        0.0103
     22 C          68.2887   92.3420    9.5008 C.ar    1  UNL1       -0.0200
     23 C          68.9287   92.1991    8.1518 C.3     1  UNL1        0.0311
     24 C          66.9523   93.0111    9.6298 C.ar    1  UNL1        0.0103
     25 C          66.3123   93.1541   10.9789 C.ar    1  UNL1        0.0921
     26 CL         64.9760   93.8231   11.1079 Cl      1  UNL1       -0.0791
     27 N          62.7802   84.9004    9.4663 N.am    1  UNL1       -0.2770
     28 C          61.7543   85.7968   10.0939 C.2     1  UNL1        0.2270
     29 O          61.6815   85.9232   11.5868 O.2     1  UNL1       -0.2748
     30 C          62.8529   84.7739    7.9734 C.3     1  UNL1        0.0758
     31 C          62.1956   84.4563    6.6630 C.3     1  UNL1        0.0215
     32 C          63.6363   84.8726    6.6980 C.3     1  UNL1        0.0215
     33 C          63.7333   84.1303   10.3315 C.3     1  UNL1        0.1209
     34 C          62.6279   83.5308   14.0956 C.ar    1  UNL1       -0.0028
     35 C          62.2431   82.0816   14.0507 C.ar    1  UNL1       -0.0018
     36 C          62.3551   81.3154   12.7660 C.ar    1  UNL1        0.0109
     37 C          62.8518   81.9984   11.5262 C.ar    1  UNL1        0.0553
     38 CL         62.9638   81.2322   10.2415 Cl      1  UNL1       -0.0825
     39 C          63.2366   83.4475   11.5712 C.ar    1  UNL1        0.0080
     40 C          63.1247   84.2137   12.8559 C.ar    1  UNL1       -0.0044
     41 C          62.5160   84.2970   15.3803 C.3     1  UNL1        0.1163
     42 C          63.2900   87.9344   16.7661 C.3     1  UNL1        0.0946
     43 C          62.7619   86.5330   16.6801 C.2     1  UNL1        0.2232
     44 O          61.9516   85.9664   17.8081 O.2     1  UNL1       -0.2751
     45 N          63.0441   85.6983   15.4662 N.am    1  UNL1       -0.3004
     46 H          63.5759   86.0702   14.7259 H       1  UNL1        0.1497
@<TRIPOS>BOND
     1    42    43    1
     2    43    44    2
     3    43    45   am
     4    45    41    1
     5    41    34    1
     6    34    35   ar
     7    35    36   ar
     8    36    37   ar
     9    37    38    1
    10    37    39   ar
    11    39    33    1
    12    33    27    1
    13    27    28   am
    14    28    29    2
    15     1    28    1
    16     1     2    1
    17     2     3    1
    18     3     4    1
    19     4     5    1
    20     5     6    1
    21     6     8    1
    22     8     9   ar
    23     9    10   ar
    24    10    11   ar
    25    11    14    1
    26    14    15    1
    27    15    16    1
    28    16    17    1
    29    17    18    1
    30    18    19   ar
    31    19    20    1
    32    19    21   ar
    33    21    22   ar
    34    22    23    1
    35    22    24   ar
    36    24    25   ar
    37    25    26    1
    38    11    12   ar
    39    12    13   ar
    40    27    30    1
    41    30    31    1
    42    31    32    1
    43    39    40   ar
    44    40    34   ar
    45     6     1    1
    46    13     8   ar
    47    32    30    1
    48    25    18   ar
    49    45    46    1
    50     3     7    1
