@<TRIPOS>MOLECULE
*****
 33 35 0 0 0
SMALL
GASTEIGER

@<TRIPOS>ATOM
      1 C          63.1267   88.4779   12.6775 C.3     1  UNL1        0.1532
      2 C          61.0634   88.5049   11.0989 C.2     1  UNL1        0.2673
      3 O          60.1790   88.8487   12.2606 O.2     1  UNL1       -0.2684
      4 N          62.5373   88.3196   11.3073 N.am    1  UNL1       -0.2932
      5 H          63.1177   88.0940   10.5448 H       1  UNL1        0.1502
      6 C          59.2321   89.5814    6.2648 C.3     1  UNL1        0.1777
      7 N          59.6322   88.8413    7.5067 N.ar    1  UNL1       -0.1680
      8 N          59.5016   87.3644    7.7335 N.ar    1  UNL1       -0.1489
      9 C          60.0219   87.0586    9.1068 C.ar    1  UNL1        0.1472
     10 C          60.4740   88.3466    9.7287 C.ar    1  UNL1        0.1763
     11 N          60.2331   89.4484    8.7397 N.ar    1  UNL1       -0.1460
     12 C          63.5925   87.2715   13.4376 C.2     1  UNL1        0.2413
     13 O          64.6025   87.4213   14.5364 O.2     1  UNL1       -0.2733
     14 N          63.0482   85.9154   13.0989 N.am    1  UNL1       -0.2945
     15 H          62.3853   85.8171   12.3777 H       1  UNL1        0.1503
     16 C          63.5140   84.7091   13.8590 C.3     1  UNL1        0.1365
     17 C          64.2105   83.4153   14.1604 C.3     1  UNL1        0.0353
     18 C          64.3403   84.0382   12.8020 C.3     1  UNL1        0.0353
     19 C          62.8496   84.9610   15.1800 C.1     1  UNL1        0.0896
     20 N          62.1851   85.2129   16.5010 N.1     1  UNL1       -0.1943
     21 C          63.2504   89.8426   13.2876 C.3     1  UNL1        0.0553
     22 C          64.2272   90.8310   12.7227 C.ar    1  UNL1       -0.0190
     23 C          64.0024   91.4114   11.3580 C.ar    1  UNL1       -0.0010
     24 C          64.9792   92.3998   10.7932 C.ar    1  UNL1        0.0377
     25 C          66.1808   92.8077   11.5931 C.ar    1  UNL1        0.1572
     26 C          66.4056   92.2272   12.9579 C.ar    1  UNL1        0.0915
     27 CL         67.6071   92.6351   13.7578 Cl      1  UNL1       -0.0791
     28 C          65.4288   91.2389   13.5227 C.ar    1  UNL1        0.0103
     29 O          67.1576   93.7961   11.0283 O.3     1  UNL1       -0.4036
     30 C          67.7059   93.6022    9.6456 C.3     1  UNL1        0.5753
     31 F          68.2542   93.4084    8.2629 F       1  UNL1       -0.1328
     32 F          67.2811   94.9941    9.2820 F       1  UNL1       -0.1328
     33 F          68.1307   92.2104   10.0092 F       1  UNL1       -0.1328
@<TRIPOS>BOND
     1     6     7    1
     2     7     8   ar
     3     8     9   ar
     4     9    10   ar
     5    10     2    1
     6     2     3    2
     7     2     4   am
     8     4     1    1
     9     1    21    1
    10    21    22    1
    11    22    23   ar
    12    23    24   ar
    13    24    25   ar
    14    25    29    1
    15    29    30    1
    16    30    31    1
    17    30    32    1
    18    30    33    1
    19    25    26   ar
    20    26    27    1
    21    26    28   ar
    22     1    12    1
    23    12    13    2
    24    12    14   am
    25    14    16    1
    26    16    19    1
    27    19    20    3
    28    16    17    1
    29    17    18    1
    30    10    11   ar
    31    11     7   ar
    32    28    22   ar
    33    18    16    1
    34     4     5    1
    35    14    15    1
@<TRIPOS>MOLECULE
*****
 33 35 0 0 0
SMALL
GASTEIGER

@<TRIPOS>ATOM
      1 C          63.9016   89.0307   13.4283 C.3     1  UNL1        0.1532
      2 C          61.7779   89.0391   11.9317 C.2     1  UNL1        0.2673
      3 O          61.0072   89.7112   13.0290 O.2     1  UNL1       -0.2684
      4 N          63.2251   88.6988   12.1313 N.am    1  UNL1       -0.2932
      5 H          63.7310   88.2577   11.4110 H       1  UNL1        0.1502
      6 C          59.7761   86.3404    7.8585 C.3     1  UNL1        0.1777
      7 N          60.1813   87.4668    8.7624 N.ar    1  UNL1       -0.1680
      8 N          59.9396   88.9264    8.5150 N.ar    1  UNL1       -0.1489
      9 C          60.5083   89.6930    9.6721 C.ar    1  UNL1        0.1472
     10 C          61.1014   88.7073   10.6346 C.ar    1  UNL1        0.1763
     11 N          60.8993   87.3313   10.0724 N.ar    1  UNL1       -0.1460
     12 C          64.4251   90.4158   13.6683 C.2     1  UNL1        0.2413
     13 O          63.7164   91.5982   13.0771 O.2     1  UNL1       -0.2733
     14 N          65.6572   90.6183   14.4995 N.am    1  UNL1       -0.2945
     15 H          66.1223   89.8422   14.8875 H       1  UNL1        0.1503
     16 C          66.1806   92.0034   14.7394 C.3     1  UNL1        0.1365
     17 C          66.9728   93.2631   14.5511 C.3     1  UNL1        0.0353
     18 C          67.1363   92.1235   13.5895 C.3     1  UNL1        0.0353
     19 C          65.4068   92.3643   15.9726 C.1     1  UNL1        0.0896
     20 N          64.6329   92.7252   17.2059 N.1     1  UNL1       -0.1943
     21 C          64.0545   87.9775   14.4854 C.3     1  UNL1        0.0553
     22 C          64.0422   86.5263   14.1056 C.ar    1  UNL1       -0.0190
     23 C          64.8049   85.5296   14.9271 C.ar    1  UNL1       -0.0010
     24 C          64.7925   84.0786   14.5473 C.ar    1  UNL1        0.0377
     25 C          64.0174   83.6242   13.3461 C.ar    1  UNL1        0.1572
     26 C          63.2547   84.6210   12.5247 C.ar    1  UNL1        0.0915
     27 CL         62.4797   84.1666   11.3235 Cl      1  UNL1       -0.0791
     28 C          63.2671   86.0720   12.9044 C.ar    1  UNL1        0.0103
     29 O          64.0051   82.1731   12.9664 O.3     1  UNL1       -0.4036
     30 C          62.7754   81.3468   13.2012 C.3     1  UNL1        0.5753
     31 F          61.5457   80.5206   13.4361 F       1  UNL1       -0.1328
     32 F          62.5842   82.0099   14.5330 F       1  UNL1       -0.1328
     33 F          62.9666   80.6838   11.8694 F       1  UNL1       -0.1328
@<TRIPOS>BOND
     1     6     7    1
     2     7     8   ar
     3     8     9   ar
     4     9    10   ar
     5    10     2    1
     6     2     3    2
     7     2     4   am
     8     4     1    1
     9     1    21    1
    10    21    22    1
    11    22    23   ar
    12    23    24   ar
    13    24    25   ar
    14    25    29    1
    15    29    30    1
    16    30    31    1
    17    30    32    1
    18    30    33    1
    19    25    26   ar
    20    26    27    1
    21    26    28   ar
    22     1    12    1
    23    12    13    2
    24    12    14   am
    25    14    16    1
    26    16    19    1
    27    19    20    3
    28    16    17    1
    29    17    18    1
    30    10    11   ar
    31    11     7   ar
    32    28    22   ar
    33    18    16    1
    34     4     5    1
    35    14    15    1
@<TRIPOS>MOLECULE
*****
 33 35 0 0 0
SMALL
GASTEIGER

@<TRIPOS>ATOM
      1 C          64.3019   90.8831   13.0931 C.3     1  UNL1        0.1532
      2 C          63.6802   89.4151   15.1446 C.2     1  UNL1        0.2673
      3 O          63.4022   90.6523   15.9457 O.2     1  UNL1       -0.2684
      4 N          64.1301   89.5304   13.7182 N.am    1  UNL1       -0.2932
      5 H          64.3125   88.7183   13.1924 H       1  UNL1        0.1502
      6 C          63.5717   84.1822   15.8417 C.3     1  UNL1        0.1777
      7 N          63.4585   85.6571   16.0902 N.ar    1  UNL1       -0.1680
      8 N          63.0293   86.3046   17.3733 N.ar    1  UNL1       -0.1489
      9 C          63.0601   87.7912   17.1753 C.ar    1  UNL1        0.1472
     10 C          63.5083   88.0624   15.7697 C.ar    1  UNL1        0.1763
     11 N          63.7546   86.7434   15.0990 N.ar    1  UNL1       -0.1460
     12 C          65.3999   91.7916   13.5612 C.2     1  UNL1        0.2413
     13 O          65.5465   93.1601   12.9647 O.2     1  UNL1       -0.2733
     14 N          66.3511   91.3317   14.6259 N.am    1  UNL1       -0.2945
     15 H          66.2549   90.4336   15.0174 H       1  UNL1        0.1503
     16 C          67.4490   92.2403   15.0940 C.3     1  UNL1        0.1365
     17 C          68.1901   93.2410   15.9303 C.3     1  UNL1        0.0353
     18 C          66.8029   92.8211   16.3168 C.3     1  UNL1        0.0353
     19 C          68.4764   91.9750   14.0338 C.1     1  UNL1        0.0896
     20 N          69.5039   91.7097   12.9736 N.1     1  UNL1       -0.1943
     21 C          63.3759   91.3272   11.9999 C.3     1  UNL1        0.0553
     22 C          62.3710   90.3687   11.4326 C.ar    1  UNL1       -0.0190
     23 C          62.6704   89.6348   10.1591 C.ar    1  UNL1       -0.0010
     24 C          61.6656   88.6764    9.5919 C.ar    1  UNL1        0.0377
     25 C          60.3614   88.4519   10.2981 C.ar    1  UNL1        0.1572
     26 C          60.0621   89.1858   11.5716 C.ar    1  UNL1        0.0915
     27 CL         58.7579   88.9613   12.2778 Cl      1  UNL1       -0.0791
     28 C          61.0669   90.1442   12.1388 C.ar    1  UNL1        0.0103
     29 O          59.3566   87.4935    9.7308 O.3     1  UNL1       -0.4036
     30 C          59.6649   86.7434    8.4690 C.3     1  UNL1        0.5753
     31 F          59.9732   85.9932    7.2071 F       1  UNL1       -0.1328
     32 F          60.5034   85.7750    9.2494 F       1  UNL1       -0.1328
     33 F          58.8264   87.7117    7.6885 F       1  UNL1       -0.1328
@<TRIPOS>BOND
     1     6     7    1
     2     7     8   ar
     3     8     9   ar
     4     9    10   ar
     5    10     2    1
     6     2     3    2
     7     2     4   am
     8     4     1    1
     9     1    21    1
    10    21    22    1
    11    22    23   ar
    12    23    24   ar
    13    24    25   ar
    14    25    29    1
    15    29    30    1
    16    30    31    1
    17    30    32    1
    18    30    33    1
    19    25    26   ar
    20    26    27    1
    21    26    28   ar
    22     1    12    1
    23    12    13    2
    24    12    14   am
    25    14    16    1
    26    16    19    1
    27    19    20    3
    28    16    17    1
    29    17    18    1
    30    10    11   ar
    31    11     7   ar
    32    28    22   ar
    33    18    16    1
    34     4     5    1
    35    14    15    1
@<TRIPOS>MOLECULE
*****
 33 35 0 0 0
SMALL
GASTEIGER

@<TRIPOS>ATOM
      1 C          63.9721   89.0302   13.4743 C.3     1  UNL1        0.1532
      2 C          61.8381   88.9636   11.9938 C.2     1  UNL1        0.2673
      3 O          61.0920   89.7453   13.0341 O.2     1  UNL1       -0.2684
      4 N          63.2782   88.6061   12.2139 N.am    1  UNL1       -0.2932
      5 H          63.7679   88.0930   11.5311 H       1  UNL1        0.1502
      6 C          59.4881   89.0943    7.2672 C.3     1  UNL1        0.1777
      7 N          60.0640   88.5995    8.5608 N.ar    1  UNL1       -0.1680
      8 N          60.0887   87.1740    9.0269 N.ar    1  UNL1       -0.1489
      9 C          60.7563   87.1369   10.3697 C.ar    1  UNL1        0.1472
     10 C          61.1442   88.5395   10.7334 C.ar    1  UNL1        0.1763
     11 N          60.7163   89.4435    9.6155 N.ar    1  UNL1       -0.1460
     12 C          64.4960   90.4295   13.6076 C.2     1  UNL1        0.2413
     13 O          63.6872   91.5850   13.0970 O.2     1  UNL1       -0.2733
     14 N          65.8287   90.6732   14.2513 N.am    1  UNL1       -0.2945
     15 H          66.3596   89.9148   14.5864 H       1  UNL1        0.1503
     16 C          66.3526   92.0723   14.3845 C.3     1  UNL1        0.1365
     17 C          66.6578   93.4118   14.9868 C.3     1  UNL1        0.0353
     18 C          65.9047   92.3863   15.7813 C.3     1  UNL1        0.0353
     19 C          66.9824   92.2443   13.0341 C.1     1  UNL1        0.0896
     20 N          67.6123   92.4164   11.6837 N.1     1  UNL1       -0.1943
     21 C          64.1420   88.0552   14.6014 C.3     1  UNL1        0.0553
     22 C          63.9925   86.5841   14.3495 C.ar    1  UNL1       -0.0190
     23 C          64.4417   85.5963   15.3851 C.ar    1  UNL1       -0.0010
     24 C          64.2922   84.1253   15.1332 C.ar    1  UNL1        0.0377
     25 C          63.6935   83.6419   13.8456 C.ar    1  UNL1        0.1572
     26 C          63.2443   84.6296   12.8100 C.ar    1  UNL1        0.0915
     27 CL         62.6456   84.1463   11.5224 Cl      1  UNL1       -0.0791
     28 C          63.3938   86.1007   13.0619 C.ar    1  UNL1        0.0103
     29 O          63.5440   82.1707   13.5937 O.3     1  UNL1       -0.4036
     30 C          62.1882   81.5324   13.6601 C.3     1  UNL1        0.5753
     31 F          60.8324   80.8941   13.7267 F       1  UNL1       -0.1328
     32 F          61.8247   82.4242   14.8101 F       1  UNL1       -0.1328
     33 F          62.5517   80.6406   12.5101 F       1  UNL1       -0.1328
@<TRIPOS>BOND
     1     6     7    1
     2     7     8   ar
     3     8     9   ar
     4     9    10   ar
     5    10     2    1
     6     2     3    2
     7     2     4   am
     8     4     1    1
     9     1    21    1
    10    21    22    1
    11    22    23   ar
    12    23    24   ar
    13    24    25   ar
    14    25    29    1
    15    29    30    1
    16    30    31    1
    17    30    32    1
    18    30    33    1
    19    25    26   ar
    20    26    27    1
    21    26    28   ar
    22     1    12    1
    23    12    13    2
    24    12    14   am
    25    14    16    1
    26    16    19    1
    27    19    20    3
    28    16    17    1
    29    17    18    1
    30    10    11   ar
    31    11     7   ar
    32    28    22   ar
    33    18    16    1
    34     4     5    1
    35    14    15    1
@<TRIPOS>MOLECULE
*****
 33 35 0 0 0
SMALL
GASTEIGER

@<TRIPOS>ATOM
      1 C          60.7054   88.7099    9.3298 C.3     1  UNL1        0.1532
      2 C          59.3925   89.3603    7.1842 C.2     1  UNL1        0.2673
      3 O          58.6448   88.0616    7.2480 O.2     1  UNL1       -0.2684
      4 N          60.4228   89.6846    8.2251 N.am    1  UNL1       -0.2932
      5 H          60.9136   90.5370    8.1832 H       1  UNL1        0.1502
      6 C          60.0480   92.7842    3.2183 C.3     1  UNL1        0.1777
      7 N          59.4112   91.9087    4.2566 N.ar    1  UNL1       -0.1680
      8 N          57.9390   91.7608    4.5026 N.ar    1  UNL1       -0.1489
      9 C          57.7528   90.7881    5.6292 C.ar    1  UNL1        0.1472
     10 C          59.1099   90.3350    6.0795 C.ar    1  UNL1        0.1763
     11 N          60.1350   91.0276    5.2311 N.ar    1  UNL1       -0.1460
     12 C          61.2863   89.1929   10.6257 C.2     1  UNL1        0.2413
     13 O          60.4111   89.3255   11.8367 O.2     1  UNL1       -0.2733
     14 N          62.7423   89.5433   10.7106 N.am    1  UNL1       -0.2945
     15 H          63.3167   89.4563    9.9157 H       1  UNL1        0.1503
     16 C          63.3231   90.0262   12.0064 C.3     1  UNL1        0.1365
     17 C          63.8460   90.9636   13.0543 C.3     1  UNL1        0.0353
     18 C          63.3581   91.5024   11.7421 C.3     1  UNL1        0.0353
     19 C          63.4899   88.7179   12.7208 C.1     1  UNL1        0.0896
     20 N          63.6567   87.4095   13.4352 N.1     1  UNL1       -0.1943
     21 C          60.4071   87.2524    9.1385 C.3     1  UNL1        0.0553
     22 C          61.4049   86.2195    9.5716 C.ar    1  UNL1       -0.0190
     23 C          62.3535   85.6276    8.5717 C.ar    1  UNL1       -0.0010
     24 C          63.3513   84.5947    9.0047 C.ar    1  UNL1        0.0377
     25 C          63.4005   84.1538   10.4376 C.ar    1  UNL1        0.1572
     26 C          62.4519   84.7457   11.4375 C.ar    1  UNL1        0.0915
     27 CL         62.5011   84.3048   12.8704 Cl      1  UNL1       -0.0791
     28 C          61.4541   85.7786   11.0044 C.ar    1  UNL1        0.0103
     29 O          64.3984   83.1209   10.8707 O.3     1  UNL1       -0.4036
     30 C          63.9335   81.8690   11.5537 C.3     1  UNL1        0.5753
     31 F          63.4686   80.6170   12.2368 F       1  UNL1       -0.1328
     32 F          63.0906   81.5306   10.3600 F       1  UNL1       -0.1328
     33 F          64.7764   82.2073   12.7474 F       1  UNL1       -0.1328
@<TRIPOS>BOND
     1     6     7    1
     2     7     8   ar
     3     8     9   ar
     4     9    10   ar
     5    10     2    1
     6     2     3    2
     7     2     4   am
     8     4     1    1
     9     1    21    1
    10    21    22    1
    11    22    23   ar
    12    23    24   ar
    13    24    25   ar
    14    25    29    1
    15    29    30    1
    16    30    31    1
    17    30    32    1
    18    30    33    1
    19    25    26   ar
    20    26    27    1
    21    26    28   ar
    22     1    12    1
    23    12    13    2
    24    12    14   am
    25    14    16    1
    26    16    19    1
    27    19    20    3
    28    16    17    1
    29    17    18    1
    30    10    11   ar
    31    11     7   ar
    32    28    22   ar
    33    18    16    1
    34     4     5    1
    35    14    15    1
@<TRIPOS>MOLECULE
*****
 33 35 0 0 0
SMALL
GASTEIGER

@<TRIPOS>ATOM
      1 C          64.0396   89.4041   14.2935 C.3     1  UNL1        0.1532
      2 C          62.8822   90.0833   12.0688 C.2     1  UNL1        0.2673
      3 O          64.0538   90.9547   11.7253 O.2     1  UNL1       -0.2684
      4 N          62.8751   89.3079   13.3529 N.am    1  UNL1       -0.2932
      5 H          62.1062   88.7360   13.5783 H       1  UNL1        0.1502
      6 C          59.8194   88.7108    7.9924 C.3     1  UNL1        0.1777
      7 N          60.3099   89.3563    9.2545 N.ar    1  UNL1       -0.1680
      8 N          59.5415   90.3220   10.1070 N.ar    1  UNL1       -0.1489
      9 C          60.4116   90.7119   11.2650 C.ar    1  UNL1        0.1472
     10 C          61.7177   89.9871   11.1282 C.ar    1  UNL1        0.1763
     11 N          61.6549   89.1492    9.8855 N.ar    1  UNL1       -0.1460
     12 C          64.6310   90.7433   14.6205 C.2     1  UNL1        0.2413
     13 O          63.8588   91.7201   15.4569 O.2     1  UNL1       -0.2733
     14 N          65.9945   91.1057   14.1111 N.am    1  UNL1       -0.2945
     15 H          66.5013   90.4646   13.5622 H       1  UNL1        0.1503
     16 C          66.5858   92.4448   14.4381 C.3     1  UNL1        0.1365
     17 C          67.2888   93.5262   15.2038 C.3     1  UNL1        0.0353
     18 C          67.1128   92.1676   15.8149 C.3     1  UNL1        0.0353
     19 C          66.2641   93.1871   13.1750 C.1     1  UNL1        0.0896
     20 N          65.9424   93.9294   11.9118 N.1     1  UNL1       -0.1943
     21 C          64.6128   88.1611   14.9070 C.3     1  UNL1        0.0553
     22 C          64.2774   86.8172   14.3313 C.ar    1  UNL1       -0.0190
     23 C          64.8226   85.5722   14.9658 C.ar    1  UNL1       -0.0010
     24 C          64.4872   84.2283   14.3901 C.ar    1  UNL1        0.0377
     25 C          63.6066   84.1295   13.1798 C.ar    1  UNL1        0.1572
     26 C          63.0613   85.3744   12.5453 C.ar    1  UNL1        0.0915
     27 CL         62.1807   85.2756   11.3351 Cl      1  UNL1       -0.0791
     28 C          63.3967   86.7183   13.1210 C.ar    1  UNL1        0.0103
     29 O          63.2712   82.7855   12.6041 O.3     1  UNL1       -0.4036
     30 C          63.8412   82.3737   11.2792 C.3     1  UNL1        0.5753
     31 F          64.4112   81.9619    9.9542 F       1  UNL1       -0.1328
     32 F          62.7113   81.4046   11.0944 F       1  UNL1       -0.1328
     33 F          64.9710   83.3429   11.4641 F       1  UNL1       -0.1328
@<TRIPOS>BOND
     1     6     7    1
     2     7     8   ar
     3     8     9   ar
     4     9    10   ar
     5    10     2    1
     6     2     3    2
     7     2     4   am
     8     4     1    1
     9     1    21    1
    10    21    22    1
    11    22    23   ar
    12    23    24   ar
    13    24    25   ar
    14    25    29    1
    15    29    30    1
    16    30    31    1
    17    30    32    1
    18    30    33    1
    19    25    26   ar
    20    26    27    1
    21    26    28   ar
    22     1    12    1
    23    12    13    2
    24    12    14   am
    25    14    16    1
    26    16    19    1
    27    19    20    3
    28    16    17    1
    29    17    18    1
    30    10    11   ar
    31    11     7   ar
    32    28    22   ar
    33    18    16    1
    34     4     5    1
    35    14    15    1
@<TRIPOS>MOLECULE
*****
 33 35 0 0 0
SMALL
GASTEIGER

@<TRIPOS>ATOM
      1 C          63.0472   90.5192   11.9729 C.3     1  UNL1        0.1532
      2 C          64.9860   92.2439   11.8443 C.2     1  UNL1        0.2673
      3 O          64.9095   92.4407   13.3294 O.2     1  UNL1       -0.2684
      4 N          64.0549   91.2831   11.1661 N.am    1  UNL1       -0.2932
      5 H          64.1051   91.1540   10.1914 H       1  UNL1        0.1502
      6 C          67.3724   96.1010    9.1408 C.3     1  UNL1        0.1777
      7 N          67.0906   94.7808    9.7948 N.ar    1  UNL1       -0.1680
      8 N          67.9979   93.5863    9.7969 N.ar    1  UNL1       -0.1489
      9 C          67.3199   92.4906   10.5649 C.ar    1  UNL1        0.1472
     10 C          65.9936   93.0079   11.0375 C.ar    1  UNL1        0.1763
     11 N          65.8518   94.4234   10.5615 N.ar    1  UNL1       -0.1460
     12 C          63.4080   90.0123   13.3379 C.2     1  UNL1        0.2413
     13 O          64.3012   88.8158   13.4817 O.2     1  UNL1       -0.2733
     14 N          62.8757   90.7019   14.5589 N.am    1  UNL1       -0.2945
     15 H          62.2895   91.4873   14.4645 H       1  UNL1        0.1503
     16 C          63.2365   90.1951   15.9238 C.3     1  UNL1        0.1365
     17 C          63.3380   89.2756   17.1046 C.3     1  UNL1        0.0353
     18 C          62.6151   88.8310   15.8677 C.3     1  UNL1        0.0353
     19 C          63.9832   91.3831   16.4539 C.1     1  UNL1        0.0896
     20 N          64.7299   92.5711   16.9840 N.1     1  UNL1       -0.1943
     21 C          61.6789   90.2620   11.4149 C.3     1  UNL1        0.0553
     22 C          61.4362   89.0635   10.5461 C.ar    1  UNL1       -0.0190
     23 C          62.1294   87.7674   10.8455 C.ar    1  UNL1       -0.0010
     24 C          61.8867   86.5690    9.9767 C.ar    1  UNL1        0.0377
     25 C          60.9509   86.6667    8.8085 C.ar    1  UNL1        0.1572
     26 C          60.2577   87.9628    8.5091 C.ar    1  UNL1        0.0915
     27 CL         59.3219   88.0604    7.3409 Cl      1  UNL1       -0.0791
     28 C          60.5004   89.1612    9.3779 C.ar    1  UNL1        0.0103
     29 O          60.7082   85.4682    7.9397 O.3     1  UNL1       -0.4036
     30 C          61.7738   84.9994    6.9939 C.3     1  UNL1        0.5753
     31 F          62.8396   84.5306    6.0480 F       1  UNL1       -0.1328
     32 F          62.8195   85.6521    7.8485 F       1  UNL1       -0.1328
     33 F          60.7281   84.3467    6.1392 F       1  UNL1       -0.1328
@<TRIPOS>BOND
     1     6     7    1
     2     7     8   ar
     3     8     9   ar
     4     9    10   ar
     5    10     2    1
     6     2     3    2
     7     2     4   am
     8     4     1    1
     9     1    21    1
    10    21    22    1
    11    22    23   ar
    12    23    24   ar
    13    24    25   ar
    14    25    29    1
    15    29    30    1
    16    30    31    1
    17    30    32    1
    18    30    33    1
    19    25    26   ar
    20    26    27    1
    21    26    28   ar
    22     1    12    1
    23    12    13    2
    24    12    14   am
    25    14    16    1
    26    16    19    1
    27    19    20    3
    28    16    17    1
    29    17    18    1
    30    10    11   ar
    31    11     7   ar
    32    28    22   ar
    33    18    16    1
    34     4     5    1
    35    14    15    1
@<TRIPOS>MOLECULE
*****
 33 35 0 0 0
SMALL
GASTEIGER

@<TRIPOS>ATOM
      1 C          62.8213   88.7584   12.1361 C.3     1  UNL1        0.1532
      2 C          62.6025   86.1890   12.4528 C.2     1  UNL1        0.2673
      3 O          61.2219   86.2344   11.8681 O.2     1  UNL1       -0.2684
      4 N          63.4022   87.4510   12.5868 N.am    1  UNL1       -0.2932
      5 H          64.3083   87.4211   12.9705 H       1  UNL1        0.1502
      6 C          63.4356   81.0121   13.0747 C.3     1  UNL1        0.1777
      7 N          63.5664   82.5020   13.1894 N.ar    1  UNL1       -0.1680
      8 N          64.5884   83.2372   14.0048 N.ar    1  UNL1       -0.1489
      9 C          64.3517   84.7078   13.8281 C.ar    1  UNL1        0.1472
     10 C          63.1834   84.8815   12.9035 C.ar    1  UNL1        0.1763
     11 N          62.6980   83.5182   12.5087 N.ar    1  UNL1       -0.1460
     12 C          62.2813   88.8989   10.7436 C.2     1  UNL1        0.2413
     13 O          63.0586   89.6603    9.7111 O.2     1  UNL1       -0.2733
     14 N          60.9641   88.2781   10.3838 N.am    1  UNL1       -0.2945
     15 H          60.4539   87.7784   11.0615 H       1  UNL1        0.1503
     16 C          60.4242   88.4186    8.9915 C.3     1  UNL1        0.1365
     17 C          59.7612   89.0273    7.7915 C.3     1  UNL1        0.0353
     18 C          59.8823   89.8155    9.0620 C.3     1  UNL1        0.0353
     19 C          60.7785   87.0705    8.4374 C.1     1  UNL1        0.0896
     20 N          61.1328   85.7224    7.8833 N.1     1  UNL1       -0.1943
     21 C          62.7803   89.9253   13.0777 C.3     1  UNL1        0.0553
     22 C          64.0168   90.7403   13.3162 C.ar    1  UNL1       -0.0190
     23 C          64.8706   90.4729   14.5202 C.ar    1  UNL1       -0.0010
     24 C          66.1070   91.2879   14.7587 C.ar    1  UNL1        0.0377
     25 C          66.4897   92.3703   13.7933 C.ar    1  UNL1        0.1572
     26 C          65.6359   92.6377   12.5894 C.ar    1  UNL1        0.0915
     27 CL         66.0186   93.7201   11.6240 Cl      1  UNL1       -0.0791
     28 C          64.3995   91.8227   12.3508 C.ar    1  UNL1        0.0103
     29 O          67.7262   93.1853   14.0319 O.3     1  UNL1       -0.4036
     30 C          68.5614   92.9409   15.2536 C.3     1  UNL1        0.5753
     31 F          69.3967   92.6964   16.4753 F       1  UNL1       -0.1328
     32 F          69.5735   92.2162   14.4167 F       1  UNL1       -0.1328
     33 F          67.5494   93.6656   16.0905 F       1  UNL1       -0.1328
@<TRIPOS>BOND
     1     6     7    1
     2     7     8   ar
     3     8     9   ar
     4     9    10   ar
     5    10     2    1
     6     2     3    2
     7     2     4   am
     8     4     1    1
     9     1    21    1
    10    21    22    1
    11    22    23   ar
    12    23    24   ar
    13    24    25   ar
    14    25    29    1
    15    29    30    1
    16    30    31    1
    17    30    32    1
    18    30    33    1
    19    25    26   ar
    20    26    27    1
    21    26    28   ar
    22     1    12    1
    23    12    13    2
    24    12    14   am
    25    14    16    1
    26    16    19    1
    27    19    20    3
    28    16    17    1
    29    17    18    1
    30    10    11   ar
    31    11     7   ar
    32    28    22   ar
    33    18    16    1
    34     4     5    1
    35    14    15    1
@<TRIPOS>MOLECULE
*****
 33 35 0 0 0
SMALL
GASTEIGER

@<TRIPOS>ATOM
      1 C          62.4184   89.0026   12.1731 C.3     1  UNL1        0.1532
      2 C          62.5344   86.4165   12.3935 C.2     1  UNL1        0.2673
      3 O          61.1966   86.2995   11.7254 O.2     1  UNL1       -0.2684
      4 N          63.1454   87.7680   12.6174 N.am    1  UNL1       -0.2932
      5 H          64.0235   87.8448   13.0559 H       1  UNL1        0.1502
      6 C          64.1868   81.4136   12.7427 C.3     1  UNL1        0.1777
      7 N          64.0210   82.8823   12.9983 N.ar    1  UNL1       -0.1680
      8 N          64.7394   83.6819   14.0445 N.ar    1  UNL1       -0.1489
      9 C          64.2700   85.1031   13.9452 C.ar    1  UNL1        0.1472
     10 C          63.2614   85.1819   12.8377 C.ar    1  UNL1        0.1763
     11 N          63.1075   83.8093   12.2524 N.ar    1  UNL1       -0.1460
     12 C          61.3488   88.9071   11.1257 C.2     1  UNL1        0.2413
     13 O          59.9226   89.2069   11.4807 O.2     1  UNL1       -0.2733
     14 N          61.7054   88.5118    9.7234 N.am    1  UNL1       -0.2945
     15 H          62.6415   88.3150    9.4904 H       1  UNL1        0.1503
     16 C          60.6359   88.4163    8.6761 C.3     1  UNL1        0.1365
     17 C          59.5402   88.8294    7.7386 C.3     1  UNL1        0.0353
     18 C          60.1894   89.8475    8.6285 C.3     1  UNL1        0.0353
     19 C          60.7108   86.9519    8.3600 C.1     1  UNL1        0.0896
     20 N          60.7858   85.4875    8.0438 N.1     1  UNL1       -0.1943
     21 C          62.7609   90.3326   12.7762 C.3     1  UNL1        0.0553
     22 C          63.9508   91.0980   12.2778 C.ar    1  UNL1       -0.0190
     23 C          63.9785   91.6060   10.8667 C.ar    1  UNL1       -0.0010
     24 C          65.1684   92.3714   10.3684 C.ar    1  UNL1        0.0377
     25 C          66.3305   92.6288   11.2812 C.ar    1  UNL1        0.1572
     26 C          66.3028   92.1208   12.6923 C.ar    1  UNL1        0.0915
     27 CL         67.4650   92.3782   13.6050 Cl      1  UNL1       -0.0791
     28 C          65.1130   91.3554   13.1906 C.ar    1  UNL1        0.0103
     29 O          67.5205   93.3942   10.7828 O.3     1  UNL1       -0.4036
     30 C          68.2520   92.9296    9.5585 C.3     1  UNL1        0.5753
     31 F          68.9836   92.4650    8.3341 F       1  UNL1       -0.1328
     32 F          68.2790   91.5329   10.1046 F       1  UNL1       -0.1328
     33 F          68.2250   94.3264    9.0124 F       1  UNL1       -0.1328
@<TRIPOS>BOND
     1     6     7    1
     2     7     8   ar
     3     8     9   ar
     4     9    10   ar
     5    10     2    1
     6     2     3    2
     7     2     4   am
     8     4     1    1
     9     1    21    1
    10    21    22    1
    11    22    23   ar
    12    23    24   ar
    13    24    25   ar
    14    25    29    1
    15    29    30    1
    16    30    31    1
    17    30    32    1
    18    30    33    1
    19    25    26   ar
    20    26    27    1
    21    26    28   ar
    22     1    12    1
    23    12    13    2
    24    12    14   am
    25    14    16    1
    26    16    19    1
    27    19    20    3
    28    16    17    1
    29    17    18    1
    30    10    11   ar
    31    11     7   ar
    32    28    22   ar
    33    18    16    1
    34     4     5    1
    35    14    15    1
