@<TRIPOS>MOLECULE
*****
 27 28 0 0 0
SMALL
GASTEIGER

@<TRIPOS>ATOM
      1 C          61.4970   86.5821   11.0802 C.2     1  UNL1        0.0000
      2 C          62.1647   85.2471   10.9322 C.2     1  UNL1        0.0002
      3 C          62.8024   84.5915   12.1210 C.ar    1  UNL1        0.0062
      4 C          63.4975   85.4268   13.1551 C.ar    1  UNL1        0.0400
      5 C          64.1352   84.7712   14.3440 C.ar    1  UNL1        0.1706
      6 O          64.8303   85.6064   15.3780 O.3     1  UNL1       -0.5028
      7 C          64.0779   83.2802   14.4988 C.ar    1  UNL1        0.2019
      8 O          64.7156   82.6246   15.6877 O.3     1  UNL1       -0.5009
      9 C          63.3828   82.4450   13.4648 C.ar    1  UNL1        0.1706
     10 O          63.3255   80.9542   13.6196 O.3     1  UNL1       -0.5028
     11 C          62.7451   83.1006   12.2759 C.ar    1  UNL1        0.0400
     12 H          64.8661   86.5377   15.2813 H       1  UNL1        0.2923
     13 H          65.1498   83.1464   16.3336 H       1  UNL1        0.2924
     14 H          63.7239   80.5446   14.3623 H       1  UNL1        0.2923
     15 C          59.5837   88.5489    7.5136 C.ar    1  UNL1        0.0002
     16 C          60.1698   89.3895    8.6090 C.ar    1  UNL1        0.0000
     17 C          60.8075   88.7339    9.7979 C.ar    1  UNL1        0.0000
     18 C          60.8592   87.2377    9.8914 C.ar    1  UNL1        0.0000
     19 C          60.2732   86.3972    8.7960 C.ar    1  UNL1        0.0000
     20 C          59.6354   87.0528    7.6071 C.ar    1  UNL1        0.0000
     21 C          58.7762   90.6945    6.2912 C.2     1  UNL1        0.0819
     22 C          58.9460   89.2046    6.3247 C.2     1  UNL1        0.0066
     23 C          58.1384   91.3501    5.1023 C.2     1  UNL1        0.3414
     24 O          56.6925   91.7463    5.1501 O.2     1  UNL1       -0.2449
     25 O          58.9467   91.6096    3.8656 O.3     1  UNL1       -0.4454
     26 C          60.3059   93.3172    2.4561 C.3     1  UNL1        0.0513
     27 C          59.8340   92.8166    3.7890 C.3     1  UNL1        0.2089
@<TRIPOS>BOND
     1    26    27    1
     2    27    25    1
     3    25    23    1
     4    23    24    2
     5    23    21    1
     6    21    22    2
     7    22    15    1
     8    15    16   ar
     9    16    17   ar
    10    17    18   ar
    11    18     1    1
    12     1     2    2
    13     2     3    1
    14     3     4   ar
    15     4     5   ar
    16     5     6    1
    17     5     7   ar
    18     7     8    1
    19     7     9   ar
    20     9    10    1
    21     9    11   ar
    22    18    19   ar
    23    19    20   ar
    24    20    15   ar
    25    11     3   ar
    26     6    12    1
    27     8    13    1
    28    10    14    1
@<TRIPOS>MOLECULE
*****
 27 28 0 0 0
SMALL
GASTEIGER

@<TRIPOS>ATOM
      1 C          61.3918   86.5627   11.0657 C.2     1  UNL1        0.0000
      2 C          62.2033   85.3134   10.8910 C.2     1  UNL1        0.0002
      3 C          62.8179   84.6451   12.0851 C.ar    1  UNL1        0.0062
      4 C          62.7713   83.1514   12.2153 C.ar    1  UNL1        0.0400
      5 C          63.3859   82.4832   13.4093 C.ar    1  UNL1        0.1706
      6 O          63.3393   80.9896   13.5395 O.3     1  UNL1       -0.5028
      7 C          64.0469   83.3086   14.4732 C.ar    1  UNL1        0.2019
      8 O          64.6614   82.6403   15.6673 O.3     1  UNL1       -0.5009
      9 C          64.0934   84.8021   14.3430 C.ar    1  UNL1        0.1706
     10 O          64.7545   85.6274   15.4069 O.3     1  UNL1       -0.5028
     11 C          63.4789   85.4704   13.1490 C.ar    1  UNL1        0.0400
     12 H          62.9264   80.4740   12.8749 H       1  UNL1        0.2923
     13 H          64.6324   81.7073   15.7486 H       1  UNL1        0.2924
     14 H          65.1383   85.2100   16.1528 H       1  UNL1        0.2923
     15 C          59.5482   88.5675    7.4836 C.ar    1  UNL1        0.0002
     16 C          60.1545   89.3958    8.5773 C.ar    1  UNL1        0.0000
     17 C          60.7690   88.7275    9.7714 C.ar    1  UNL1        0.0000
     18 C          60.7773   87.2310    9.8717 C.ar    1  UNL1        0.0000
     19 C          60.1710   86.4026    8.7779 C.ar    1  UNL1        0.0000
     20 C          59.5565   87.0709    7.5839 C.ar    1  UNL1        0.0000
     21 C          58.7729   90.7269    6.2646 C.2     1  UNL1        0.0819
     22 C          58.9337   89.2358    6.2895 C.2     1  UNL1        0.0066
     23 C          58.1584   91.3952    5.0706 C.2     1  UNL1        0.3414
     24 O          56.7183   91.8135    5.1037 O.2     1  UNL1       -0.2449
     25 O          58.9840   91.6451    3.8434 O.3     1  UNL1       -0.4454
     26 C          60.6392   93.1404    2.5113 C.3     1  UNL1        0.0513
     27 C          59.8214   92.8856    3.7426 C.3     1  UNL1        0.2089
@<TRIPOS>BOND
     1    26    27    1
     2    27    25    1
     3    25    23    1
     4    23    24    2
     5    23    21    1
     6    21    22    2
     7    22    15    1
     8    15    16   ar
     9    16    17   ar
    10    17    18   ar
    11    18     1    1
    12     1     2    2
    13     2     3    1
    14     3     4   ar
    15     4     5   ar
    16     5     6    1
    17     5     7   ar
    18     7     8    1
    19     7     9   ar
    20     9    10    1
    21     9    11   ar
    22    18    19   ar
    23    19    20   ar
    24    20    15   ar
    25    11     3   ar
    26     6    12    1
    27     8    13    1
    28    10    14    1
@<TRIPOS>MOLECULE
*****
 27 28 0 0 0
SMALL
GASTEIGER

@<TRIPOS>ATOM
      1 C          64.6311   88.1040   14.6713 C.2     1  UNL1        0.0000
      2 C          64.2106   89.1608   13.6935 C.2     1  UNL1        0.0002
      3 C          64.7892   90.5416   13.7865 C.ar    1  UNL1        0.0062
      4 C          65.3153   91.0476   15.0970 C.ar    1  UNL1        0.0400
      5 C          65.8939   92.4284   15.1901 C.ar    1  UNL1        0.1706
      6 O          66.4200   92.9344   16.5004 O.3     1  UNL1       -0.5028
      7 C          65.9464   93.3032   13.9726 C.ar    1  UNL1        0.2019
      8 O          66.5250   94.6839   14.0657 O.3     1  UNL1       -0.5009
      9 C          65.4203   92.7972   12.6622 C.ar    1  UNL1        0.1706
     10 O          65.4728   93.6719   11.4449 O.3     1  UNL1       -0.5028
     11 C          64.8417   91.4164   12.5692 C.ar    1  UNL1        0.0400
     12 H          66.3872   92.3879   17.2609 H       1  UNL1        0.2923
     13 H          66.8536   95.0000   14.8842 H       1  UNL1        0.2924
     14 H          65.8342   94.5345   11.5030 H       1  UNL1        0.2923
     15 C          62.8953   83.9616   14.3922 C.ar    1  UNL1        0.0002
     16 C          63.3191   84.5091   15.7228 C.ar    1  UNL1        0.0000
     17 C          63.8977   85.8899   15.8159 C.ar    1  UNL1        0.0000
     18 C          64.0525   86.7232   14.5783 C.ar    1  UNL1        0.0000
     19 C          63.6287   86.1757   13.2477 C.ar    1  UNL1        0.0000
     20 C          63.0501   84.7949   13.1546 C.ar    1  UNL1        0.0000
     21 C          62.7629   81.6526   13.2086 C.2     1  UNL1        0.0819
     22 C          62.3167   82.5808   14.2992 C.2     1  UNL1        0.0066
     23 C          62.1843   80.2718   13.1156 C.2     1  UNL1        0.3414
     24 O          62.6210   79.3481   12.0174 O.2     1  UNL1       -0.2449
     25 O          61.1690   79.8147   14.1208 O.3     1  UNL1       -0.4454
     26 C          58.6181   79.6661   14.5906 C.3     1  UNL1        0.0513
     27 C          59.8171   80.4628   14.1692 C.3     1  UNL1        0.2089
@<TRIPOS>BOND
     1    26    27    1
     2    27    25    1
     3    25    23    1
     4    23    24    2
     5    23    21    1
     6    21    22    2
     7    22    15    1
     8    15    16   ar
     9    16    17   ar
    10    17    18   ar
    11    18     1    1
    12     1     2    2
    13     2     3    1
    14     3     4   ar
    15     4     5   ar
    16     5     6    1
    17     5     7   ar
    18     7     8    1
    19     7     9   ar
    20     9    10    1
    21     9    11   ar
    22    18    19   ar
    23    19    20   ar
    24    20    15   ar
    25    11     3   ar
    26     6    12    1
    27     8    13    1
    28    10    14    1
@<TRIPOS>MOLECULE
*****
 27 28 0 0 0
SMALL
GASTEIGER

@<TRIPOS>ATOM
      1 C          63.4855   85.9961   13.5596 C.2     1  UNL1        0.0000
      2 C          63.2590   85.1998   12.3088 C.2     1  UNL1        0.0002
      3 C          63.0034   83.7243   12.3950 C.ar    1  UNL1        0.0062
      4 C          63.2509   82.8493   11.2020 C.ar    1  UNL1        0.0400
      5 C          62.9953   81.3738   11.2882 C.ar    1  UNL1        0.1706
      6 O          63.2427   80.4988   10.0952 O.3     1  UNL1       -0.5028
      7 C          62.4924   80.7732   12.5674 C.ar    1  UNL1        0.2019
      8 O          62.2368   79.2976   12.6536 O.3     1  UNL1       -0.5009
      9 C          62.2450   81.6481   13.7604 C.ar    1  UNL1        0.1706
     10 O          61.7420   81.0475   15.0395 O.3     1  UNL1       -0.5028
     11 C          62.5005   83.1237   13.6742 C.ar    1  UNL1        0.0400
     12 H          63.5569   80.8740    9.2961 H       1  UNL1        0.2923
     13 H          62.3914   78.7510   11.9084 H       1  UNL1        0.2924
     14 H          61.5824   80.1258   15.0934 H       1  UNL1        0.2923
     15 C          64.2520   90.4228   13.3010 C.ar    1  UNL1        0.0002
     16 C          63.4840   89.7299   12.2148 C.ar    1  UNL1        0.0000
     17 C          63.2285   88.2544   12.3010 C.ar    1  UNL1        0.0000
     18 C          63.7410   87.4717   13.4734 C.ar    1  UNL1        0.0000
     19 C          64.5090   88.1645   14.5597 C.ar    1  UNL1        0.0000
     20 C          64.7646   89.6401   14.4735 C.ar    1  UNL1        0.0000
     21 C          65.7964   92.4039   12.6376 C.2     1  UNL1        0.0819
     22 C          64.5076   91.8983   13.2148 C.2     1  UNL1        0.0066
     23 C          66.0520   93.8794   12.5514 C.2     1  UNL1        0.3414
     24 O          66.2845   94.6746   13.8018 O.2     1  UNL1       -0.2449
     25 O          66.0750   94.5598   11.2147 O.3     1  UNL1       -0.4454
     26 C          67.7761   94.4462    9.2543 C.3     1  UNL1        0.0513
     27 C          66.6340   93.8463   10.0195 C.3     1  UNL1        0.2089
@<TRIPOS>BOND
     1    26    27    1
     2    27    25    1
     3    25    23    1
     4    23    24    2
     5    23    21    1
     6    21    22    2
     7    22    15    1
     8    15    16   ar
     9    16    17   ar
    10    17    18   ar
    11    18     1    1
    12     1     2    2
    13     2     3    1
    14     3     4   ar
    15     4     5   ar
    16     5     6    1
    17     5     7   ar
    18     7     8    1
    19     7     9   ar
    20     9    10    1
    21     9    11   ar
    22    18    19   ar
    23    19    20   ar
    24    20    15   ar
    25    11     3   ar
    26     6    12    1
    27     8    13    1
    28    10    14    1
@<TRIPOS>MOLECULE
*****
 27 28 0 0 0
SMALL
GASTEIGER

@<TRIPOS>ATOM
      1 C          64.6811   88.0723   14.5606 C.2     1  UNL1        0.0000
      2 C          64.1646   89.1812   13.6925 C.2     1  UNL1        0.0002
      3 C          64.7677   90.5513   13.7878 C.ar    1  UNL1        0.0062
      4 C          64.8385   91.4259   12.5712 C.ar    1  UNL1        0.0400
      5 C          65.4417   92.7960   12.6665 C.ar    1  UNL1        0.1706
      6 O          65.5125   93.6705   11.4499 O.3     1  UNL1       -0.5028
      7 C          65.9740   93.2915   13.9784 C.ar    1  UNL1        0.2019
      8 O          66.5771   94.6616   14.0737 O.3     1  UNL1       -0.5009
      9 C          65.9032   92.4169   15.1950 C.ar    1  UNL1        0.1706
     10 O          66.4355   92.9125   16.5068 O.3     1  UNL1       -0.5028
     11 C          65.3001   91.0468   15.0997 C.ar    1  UNL1        0.0400
     12 H          65.1799   93.3610   10.6304 H       1  UNL1        0.2923
     13 H          66.6214   95.2079   13.3137 H       1  UNL1        0.2924
     14 H          66.8123   93.7683   16.5664 H       1  UNL1        0.2923
     15 C          62.8717   83.9621   14.2747 C.ar    1  UNL1        0.0002
     16 C          63.3748   84.4700   15.5933 C.ar    1  UNL1        0.0000
     17 C          63.9780   85.8401   15.6886 C.ar    1  UNL1        0.0000
     18 C          64.0780   86.7022   14.4653 C.ar    1  UNL1        0.0000
     19 C          63.5749   86.1943   13.1466 C.ar    1  UNL1        0.0000
     20 C          62.9718   84.8242   13.0513 C.ar    1  UNL1        0.0000
     21 C          62.8134   81.5995   13.1955 C.2     1  UNL1        0.0819
     22 C          62.2686   82.5920   14.1794 C.2     1  UNL1        0.0066
     23 C          62.2102   80.2294   13.1002 C.2     1  UNL1        0.3414
     24 O          62.6192   79.3054   11.9917 O.2     1  UNL1       -0.2449
     25 O          61.1981   79.7834   14.1135 O.3     1  UNL1       -0.4454
     26 C          58.6515   79.6373   14.6070 C.3     1  UNL1        0.0513
     27 C          59.8438   80.4269   14.1542 C.3     1  UNL1        0.2089
@<TRIPOS>BOND
     1    26    27    1
     2    27    25    1
     3    25    23    1
     4    23    24    2
     5    23    21    1
     6    21    22    2
     7    22    15    1
     8    15    16   ar
     9    16    17   ar
    10    17    18   ar
    11    18     1    1
    12     1     2    2
    13     2     3    1
    14     3     4   ar
    15     4     5   ar
    16     5     6    1
    17     5     7   ar
    18     7     8    1
    19     7     9   ar
    20     9    10    1
    21     9    11   ar
    22    18    19   ar
    23    19    20   ar
    24    20    15   ar
    25    11     3   ar
    26     6    12    1
    27     8    13    1
    28    10    14    1
@<TRIPOS>MOLECULE
*****
 27 28 0 0 0
SMALL
GASTEIGER

@<TRIPOS>ATOM
      1 C          63.4102   86.1169   13.5363 C.2     1  UNL1        0.0000
      2 C          63.4221   85.2715   12.2973 C.2     1  UNL1        0.0002
      3 C          63.1248   83.8040   12.3877 C.ar    1  UNL1        0.0062
      4 C          62.6441   83.2144   13.6806 C.ar    1  UNL1        0.0400
      5 C          62.3468   81.7470   13.7710 C.ar    1  UNL1        0.1706
      6 O          61.8660   81.1574   15.0638 O.3     1  UNL1       -0.5028
      7 C          62.5303   80.8691   12.5686 C.ar    1  UNL1        0.2019
      8 O          62.2330   79.4016   12.6590 O.3     1  UNL1       -0.5009
      9 C          63.0110   81.4587   11.2759 C.ar    1  UNL1        0.1706
     10 O          63.1945   80.5808   10.0736 O.3     1  UNL1       -0.5028
     11 C          63.3083   82.9261   11.1854 C.ar    1  UNL1        0.0400
     12 H          61.7514   81.7058   15.8148 H       1  UNL1        0.2923
     13 H          61.9327   79.0333   13.4666 H       1  UNL1        0.2924
     14 H          63.0088   79.6641   10.1301 H       1  UNL1        0.2923
     15 C          64.3020   90.5193   13.2650 C.ar    1  UNL1        0.0002
     16 C          63.5313   89.8414   12.1712 C.ar    1  UNL1        0.0000
     17 C          63.2340   88.3739   12.2616 C.ar    1  UNL1        0.0000
     18 C          63.7074   87.5843   13.4459 C.ar    1  UNL1        0.0000
     19 C          64.4781   88.2622   14.5396 C.ar    1  UNL1        0.0000
     20 C          64.7754   89.7297   14.4492 C.ar    1  UNL1        0.0000
     21 C          65.8400   92.4590   12.4765 C.2     1  UNL1        0.0819
     22 C          64.5992   91.9867   13.1746 C.2     1  UNL1        0.0066
     23 C          66.1373   93.9264   12.3861 C.2     1  UNL1        0.3414
     24 O          66.3975   94.7173   13.6338 O.2     1  UNL1       -0.2449
     25 O          66.1744   94.6031   11.0478 O.3     1  UNL1       -0.4454
     26 C          67.9798   93.8778    9.3260 C.3     1  UNL1        0.0513
     27 C          66.5664   93.8269    9.8256 C.3     1  UNL1        0.2089
@<TRIPOS>BOND
     1    26    27    1
     2    27    25    1
     3    25    23    1
     4    23    24    2
     5    23    21    1
     6    21    22    2
     7    22    15    1
     8    15    16   ar
     9    16    17   ar
    10    17    18   ar
    11    18     1    1
    12     1     2    2
    13     2     3    1
    14     3     4   ar
    15     4     5   ar
    16     5     6    1
    17     5     7   ar
    18     7     8    1
    19     7     9   ar
    20     9    10    1
    21     9    11   ar
    22    18    19   ar
    23    19    20   ar
    24    20    15   ar
    25    11     3   ar
    26     6    12    1
    27     8    13    1
    28    10    14    1
@<TRIPOS>MOLECULE
*****
 27 28 0 0 0
SMALL
GASTEIGER

@<TRIPOS>ATOM
      1 C          63.3188   85.7657   13.5099 C.2     1  UNL1        0.0000
      2 C          63.5422   84.9224   12.2898 C.2     1  UNL1        0.0002
      3 C          63.2473   83.4522   12.3298 C.ar    1  UNL1        0.0062
      4 C          62.8616   82.7996   13.6243 C.ar    1  UNL1        0.0400
      5 C          62.5666   81.3294   13.6643 C.ar    1  UNL1        0.1706
      6 O          62.1810   80.6769   14.9586 O.3     1  UNL1       -0.5028
      7 C          62.6573   80.5119   12.4099 C.ar    1  UNL1        0.2019
      8 O          62.3624   79.0417   12.4500 O.3     1  UNL1       -0.5009
      9 C          63.0430   81.1644   11.1156 C.ar    1  UNL1        0.1706
     10 O          63.1337   80.3468    9.8613 O.3     1  UNL1       -0.5028
     11 C          63.3380   82.6346   11.0755 C.ar    1  UNL1        0.0400
     12 H          62.1243   81.1876   15.7422 H       1  UNL1        0.2923
     13 H          62.1215   78.6340   13.2585 H       1  UNL1        0.2924
     14 H          62.9494   79.4285    9.8863 H       1  UNL1        0.2923
     15 C          64.2037   90.1762   13.3898 C.ar    1  UNL1        0.0002
     16 C          63.4326   89.5352   12.2741 C.ar    1  UNL1        0.0000
     17 C          63.1377   88.0651   12.3142 C.ar    1  UNL1        0.0000
     18 C          63.6137   87.2358   13.4699 C.ar    1  UNL1        0.0000
     19 C          64.3847   87.8767   14.5855 C.ar    1  UNL1        0.0000
     20 C          64.6797   89.3469   14.5455 C.ar    1  UNL1        0.0000
     21 C          65.8343   92.1305   12.8685 C.2     1  UNL1        0.0819
     22 C          64.4986   91.6463   13.3497 C.2     1  UNL1        0.0066
     23 C          66.1292   93.6006   12.8285 C.2     1  UNL1        0.3414
     24 O          66.0665   94.3430   11.5266 O.2     1  UNL1       -0.2449
     25 O          66.4870   94.3284   14.0904 O.3     1  UNL1       -0.4454
     26 C          67.0614   92.8371   16.1388 C.3     1  UNL1        0.0513
     27 C          67.5012   93.7466   15.0300 C.3     1  UNL1        0.2089
@<TRIPOS>BOND
     1    26    27    1
     2    27    25    1
     3    25    23    1
     4    23    24    2
     5    23    21    1
     6    21    22    2
     7    22    15    1
     8    15    16   ar
     9    16    17   ar
    10    17    18   ar
    11    18     1    1
    12     1     2    2
    13     2     3    1
    14     3     4   ar
    15     4     5   ar
    16     5     6    1
    17     5     7   ar
    18     7     8    1
    19     7     9   ar
    20     9    10    1
    21     9    11   ar
    22    18    19   ar
    23    19    20   ar
    24    20    15   ar
    25    11     3   ar
    26     6    12    1
    27     8    13    1
    28    10    14    1
@<TRIPOS>MOLECULE
*****
 27 28 0 0 0
SMALL
GASTEIGER

@<TRIPOS>ATOM
      1 C          63.0746   86.2537   12.6728 C.2     1  UNL1        0.0000
      2 C          63.7560   85.1303   13.3964 C.2     1  UNL1        0.0002
      3 C          63.3467   83.7114   13.1336 C.ar    1  UNL1        0.0062
      4 C          63.6143   83.0892   11.7951 C.ar    1  UNL1        0.0400
      5 C          63.2050   81.6703   11.5323 C.ar    1  UNL1        0.1706
      6 O          63.4725   81.0481   10.1940 O.3     1  UNL1       -0.5028
      7 C          62.5281   80.8735   12.6080 C.ar    1  UNL1        0.2019
      8 O          62.1187   79.4546   12.3452 O.3     1  UNL1       -0.5009
      9 C          62.2605   81.4957   13.9464 C.ar    1  UNL1        0.1706
     10 O          61.5836   80.6989   15.0220 O.3     1  UNL1       -0.5028
     11 C          62.6698   82.9146   14.2092 C.ar    1  UNL1        0.0400
     12 H          63.8954   81.5459    9.5221 H       1  UNL1        0.2923
     13 H          62.2859   79.0659   11.5092 H       1  UNL1        0.2924
     14 H          61.3279   79.8125   14.8578 H       1  UNL1        0.2923
     15 C          64.3025   90.5106   13.4612 C.ar    1  UNL1        0.0002
     16 C          64.6578   89.4335   14.4428 C.ar    1  UNL1        0.0000
     17 C          64.2485   88.0145   14.1800 C.ar    1  UNL1        0.0000
     18 C          63.4839   87.6727   12.9356 C.ar    1  UNL1        0.0000
     19 C          63.1286   88.7498   11.9541 C.ar    1  UNL1        0.0000
     20 C          63.5379   90.1688   12.2169 C.ar    1  UNL1        0.0000
     21 C          66.0557   92.4185   13.2715 C.2     1  UNL1        0.0819
     22 C          64.7118   91.9295   13.7240 C.2     1  UNL1        0.0066
     23 C          66.4650   93.8375   13.5343 C.2     1  UNL1        0.3414
     24 O          66.1279   94.9112   12.5426 O.2     1  UNL1       -0.2449
     25 O          67.2115   94.1827   14.7888 O.3     1  UNL1       -0.4454
     26 C          68.6661   92.4442   16.0583 C.3     1  UNL1        0.0513
     27 C          67.3613   93.1616   15.8774 C.3     1  UNL1        0.2089
@<TRIPOS>BOND
     1    26    27    1
     2    27    25    1
     3    25    23    1
     4    23    24    2
     5    23    21    1
     6    21    22    2
     7    22    15    1
     8    15    16   ar
     9    16    17   ar
    10    17    18   ar
    11    18     1    1
    12     1     2    2
    13     2     3    1
    14     3     4   ar
    15     4     5   ar
    16     5     6    1
    17     5     7   ar
    18     7     8    1
    19     7     9   ar
    20     9    10    1
    21     9    11   ar
    22    18    19   ar
    23    19    20   ar
    24    20    15   ar
    25    11     3   ar
    26     6    12    1
    27     8    13    1
    28    10    14    1
@<TRIPOS>MOLECULE
*****
 27 28 0 0 0
SMALL
GASTEIGER

@<TRIPOS>ATOM
      1 C          63.4208   87.7089   13.4326 C.2     1  UNL1        0.0000
      2 C          63.4734   86.5160   12.5248 C.2     1  UNL1        0.0002
      3 C          63.1410   85.1535   13.0568 C.ar    1  UNL1        0.0062
      4 C          62.9682   84.0012   12.1120 C.ar    1  UNL1        0.0400
      5 C          62.6358   82.6386   12.6440 C.ar    1  UNL1        0.1706
      6 O          62.4630   81.4863   11.6994 O.3     1  UNL1       -0.5028
      7 C          62.4761   82.4284   14.1206 C.ar    1  UNL1        0.2019
      8 O          62.1437   81.0658   14.6525 O.3     1  UNL1       -0.5009
      9 C          62.6489   83.5807   15.0652 C.ar    1  UNL1        0.1706
     10 O          62.4893   83.3704   16.5418 O.3     1  UNL1       -0.5028
     11 C          62.9813   84.9432   14.5333 C.ar    1  UNL1        0.0400
     12 H          62.5627   81.6177   10.7770 H       1  UNL1        0.2923
     13 H          62.0358   80.3460   14.0625 H       1  UNL1        0.2924
     14 H          62.2816   82.5193   16.8741 H       1  UNL1        0.2923
     15 C          64.4180   91.7966   11.8368 C.ar    1  UNL1        0.0002
     16 C          64.9740   91.3505   13.1566 C.ar    1  UNL1        0.0000
     17 C          64.6416   89.9880   13.6885 C.ar    1  UNL1        0.0000
     18 C          63.7532   89.0715   12.9007 C.ar    1  UNL1        0.0000
     19 C          63.1972   89.5176   11.5809 C.ar    1  UNL1        0.0000
     20 C          63.5296   90.8801   11.0490 C.ar    1  UNL1        0.0000
     21 C          66.0776   93.7836   11.6188 C.2     1  UNL1        0.0819
     22 C          64.7504   93.1591   11.3049 C.2     1  UNL1        0.0066
     23 C          66.4101   95.1461   11.0869 C.2     1  UNL1        0.3414
     24 O          65.9995   96.3701   11.8506 O.2     1  UNL1       -0.2449
     25 O          67.1531   95.2847    9.7912 O.3     1  UNL1       -0.4454
     26 C          68.5923   93.1591    9.3904 C.3     1  UNL1        0.0513
     27 C          67.4724   94.0668    8.9758 C.3     1  UNL1        0.2089
@<TRIPOS>BOND
     1    26    27    1
     2    27    25    1
     3    25    23    1
     4    23    24    2
     5    23    21    1
     6    21    22    2
     7    22    15    1
     8    15    16   ar
     9    16    17   ar
    10    17    18   ar
    11    18     1    1
    12     1     2    2
    13     2     3    1
    14     3     4   ar
    15     4     5   ar
    16     5     6    1
    17     5     7   ar
    18     7     8    1
    19     7     9   ar
    20     9    10    1
    21     9    11   ar
    22    18    19   ar
    23    19    20   ar
    24    20    15   ar
    25    11     3   ar
    26     6    12    1
    27     8    13    1
    28    10    14    1
