@<TRIPOS>MOLECULE
*****
 20 22 0 0 0
SMALL
GASTEIGER

@<TRIPOS>ATOM
      1 C          65.0363   91.8776   12.3477 C.ar    1  UNL1        0.0538
      2 C          63.7779   91.2560   11.8186 C.ar    1  UNL1        0.1019
      3 N          63.0130   90.2782   12.6605 N.ar    1  UNL1       -0.2422
      4 C          63.5066   89.9220   14.0315 C.ar    1  UNL1        0.0989
      5 C          64.7650   90.5436   14.5605 C.ar    1  UNL1        0.0209
      6 C          65.5298   91.5214   13.7186 C.ar    1  UNL1        0.0091
      7 C          66.6547   94.9289   10.5768 C.ar    1  UNL1        0.1385
      8 C          67.3019   93.7915    9.8437 C.ar    1  UNL1        0.0375
      9 C          66.7744   92.5100   10.4178 C.ar    1  UNL1        0.0404
     10 C          65.8012   92.8555   11.5058 C.ar    1  UNL1        0.1464
     11 O          65.7272   94.3504   11.6040 O.2     1  UNL1       -0.4563
     12 N          67.6228   96.8285    9.0921 N.3     1  UNL1       -0.3148
     13 C          66.8931   96.3886   10.3265 C.3     1  UNL1        0.1307
     14 H          67.6946   97.8459    9.0840 H       1  UNL1        0.1192
     15 H          67.1119   96.5171    8.2660 H       1  UNL1        0.1192
     16 C          66.7883   92.1431   14.2477 C.ar    1  UNL1        0.0410
     17 C          66.8769   93.1419   15.3632 C.ar    1  UNL1        0.0438
     18 C          68.3225   93.4911   15.5590 C.ar    1  UNL1        0.1798
     19 O          69.1274   92.7082   14.5644 O.2     1  UNL1       -0.4473
     20 C          68.1792   91.8750   13.7540 C.ar    1  UNL1        0.1797
@<TRIPOS>BOND
     1    12    13    1
     2    13     7    1
     3     7     8   ar
     4     8     9   ar
     5     9    10   ar
     6    10     1    1
     7     1     2   ar
     8     2     3   ar
     9     3     4   ar
    10     4     5   ar
    11     5     6   ar
    12     6    16    1
    13    16    17   ar
    14    17    18   ar
    15    18    19   ar
    16    19    20   ar
    17    10    11   ar
    18    11     7   ar
    19     6     1   ar
    20    20    16   ar
    21    12    14    1
    22    12    15    1
@<TRIPOS>MOLECULE
*****
 20 22 0 0 0
SMALL
GASTEIGER

@<TRIPOS>ATOM
      1 C          64.8385   91.6488   12.7795 C.ar    1  UNL1        0.0538
      2 C          65.6180   92.7219   12.0791 C.ar    1  UNL1        0.1019
      3 N          66.8331   93.3127   12.7307 N.ar    1  UNL1       -0.2422
      4 C          67.2686   92.8303   14.0826 C.ar    1  UNL1        0.0989
      5 C          66.4891   91.7571   14.7829 C.ar    1  UNL1        0.0209
      6 C          65.2740   91.1663   14.1314 C.ar    1  UNL1        0.0091
      7 C          61.4245   90.0854   11.7964 C.ar    1  UNL1        0.1385
      8 C          62.0825   90.2122   10.4543 C.ar    1  UNL1        0.0375
      9 C          63.4414   90.8132   10.6593 C.ar    1  UNL1        0.0404
     10 C          63.6233   91.0579   12.1280 C.ar    1  UNL1        0.1464
     11 O          62.3768   90.6081   12.8307 O.2     1  UNL1       -0.4563
     12 N          59.7287   88.1211   11.6701 N.3     1  UNL1       -0.3148
     13 C          60.0547   89.5329   12.0581 C.3     1  UNL1        0.1307
     14 H          58.7615   87.9147   11.9195 H       1  UNL1        0.1192
     15 H          60.3510   87.4807   12.1630 H       1  UNL1        0.1192
     16 C          64.4944   90.0931   14.8317 C.ar    1  UNL1        0.0410
     17 C          63.6069   90.2846   16.0257 C.ar    1  UNL1        0.0438
     18 C          63.0295   88.9498   16.3929 C.ar    1  UNL1        0.1798
     19 O          63.5600   87.9333   15.4258 O.2     1  UNL1       -0.4473
     20 C          64.4654   88.6399   14.4609 C.ar    1  UNL1        0.1797
@<TRIPOS>BOND
     1    12    13    1
     2    13     7    1
     3     7     8   ar
     4     8     9   ar
     5     9    10   ar
     6    10     1    1
     7     1     2   ar
     8     2     3   ar
     9     3     4   ar
    10     4     5   ar
    11     5     6   ar
    12     6    16    1
    13    16    17   ar
    14    17    18   ar
    15    18    19   ar
    16    19    20   ar
    17    10    11   ar
    18    11     7   ar
    19     6     1   ar
    20    20    16   ar
    21    12    14    1
    22    12    15    1
@<TRIPOS>MOLECULE
*****
 20 22 0 0 0
SMALL
GASTEIGER

@<TRIPOS>ATOM
      1 C          64.4273   90.4722   13.7297 C.ar    1  UNL1        0.0538
      2 C          65.5487   91.4192   14.0387 C.ar    1  UNL1        0.1019
      3 N          65.9846   92.4249   13.0148 N.ar    1  UNL1       -0.2422
      4 C          65.2991   92.4837   11.6820 C.ar    1  UNL1        0.0989
      5 C          64.1777   91.5367   11.3729 C.ar    1  UNL1        0.0209
      6 C          63.7417   90.5309   12.3968 C.ar    1  UNL1        0.0091
      7 C          63.5757   87.3643   15.8933 C.ar    1  UNL1        0.1385
      8 C          63.0651   88.4730   16.7651 C.ar    1  UNL1        0.0375
      9 C          63.3220   89.7722   16.0607 C.ar    1  UNL1        0.0404
     10 C          63.9913   89.4664   14.7536 C.ar    1  UNL1        0.1464
     11 O          64.1481   87.9782   14.6502 O.2     1  UNL1       -0.4563
     12 N          62.2118   85.2493   16.5392 N.3     1  UNL1       -0.3148
     13 C          63.5230   85.8988   16.2093 C.3     1  UNL1        0.1307
     14 H          62.3610   84.2577   16.7257 H       1  UNL1        0.1192
     15 H          61.5725   85.3547   15.7515 H       1  UNL1        0.1192
     16 C          62.6202   89.5839   12.0878 C.ar    1  UNL1        0.0410
     17 C          62.7606   88.2188   11.4822 C.ar    1  UNL1        0.0438
     18 C          61.3886   87.6269   11.3503 C.ar    1  UNL1        0.1798
     19 O          60.4003   88.6263   11.8745 O.2     1  UNL1       -0.4473
     20 C          61.1615   89.8357   12.3303 C.ar    1  UNL1        0.1797
@<TRIPOS>BOND
     1    12    13    1
     2    13     7    1
     3     7     8   ar
     4     8     9   ar
     5     9    10   ar
     6    10     1    1
     7     1     2   ar
     8     2     3   ar
     9     3     4   ar
    10     4     5   ar
    11     5     6   ar
    12     6    16    1
    13    16    17   ar
    14    17    18   ar
    15    18    19   ar
    16    19    20   ar
    17    10    11   ar
    18    11     7   ar
    19     6     1   ar
    20    20    16   ar
    21    12    14    1
    22    12    15    1
@<TRIPOS>MOLECULE
*****
 20 22 0 0 0
SMALL
GASTEIGER

@<TRIPOS>ATOM
      1 C          60.7755   86.7511    9.2036 C.ar    1  UNL1        0.0538
      2 C          60.0611   86.0897    8.0625 C.ar    1  UNL1        0.1019
      3 N          59.2242   86.9094    7.1256 N.ar    1  UNL1       -0.2422
      4 C          59.1019   88.3904    7.3297 C.ar    1  UNL1        0.0989
      5 C          59.8163   89.0517    8.4708 C.ar    1  UNL1        0.0209
      6 C          60.6531   88.2321    9.4077 C.ar    1  UNL1        0.0091
      7 C          62.5046   84.9310   12.1639 C.ar    1  UNL1        0.1385
      8 C          63.2958   84.4095   11.0011 C.ar    1  UNL1        0.0375
      9 C          62.7443   85.0278    9.7506 C.ar    1  UNL1        0.0404
     10 C          61.6124   85.9315   10.1406 C.ar    1  UNL1        0.1464
     11 O          61.4642   85.8717   11.6321 O.2     1  UNL1       -0.4563
     12 N          63.3706   85.5558   14.5324 N.3     1  UNL1       -0.3148
     13 C          62.7166   84.5745   13.6054 C.3     1  UNL1        0.1307
     14 H          63.4337   85.1510   15.4665 H       1  UNL1        0.1192
     15 H          62.8156   86.4108   14.5690 H       1  UNL1        0.1192
     16 C          61.3676   88.8935   10.5489 C.ar    1  UNL1        0.0410
     17 C          62.8036   89.3269   10.5576 C.ar    1  UNL1        0.0438
     18 C          63.0950   89.9388   11.8957 C.ar    1  UNL1        0.1798
     19 O          61.8391   89.8836   12.7141 O.2     1  UNL1       -0.4473
     20 C          60.7716   89.2375   11.8817 C.ar    1  UNL1        0.1797
@<TRIPOS>BOND
     1    12    13    1
     2    13     7    1
     3     7     8   ar
     4     8     9   ar
     5     9    10   ar
     6    10     1    1
     7     1     2   ar
     8     2     3   ar
     9     3     4   ar
    10     4     5   ar
    11     5     6   ar
    12     6    16    1
    13    16    17   ar
    14    17    18   ar
    15    18    19   ar
    16    19    20   ar
    17    10    11   ar
    18    11     7   ar
    19     6     1   ar
    20    20    16   ar
    21    12    14    1
    22    12    15    1
@<TRIPOS>MOLECULE
*****
 20 22 0 0 0
SMALL
GASTEIGER

@<TRIPOS>ATOM
      1 C          60.8401   88.3703    9.3752 C.ar    1  UNL1        0.0538
      2 C          59.9421   89.1921    8.4987 C.ar    1  UNL1        0.1019
      3 N          59.0533   88.5193    7.4951 N.ar    1  UNL1       -0.2422
      4 C          59.0625   87.0247    7.3679 C.ar    1  UNL1        0.0989
      5 C          59.9605   86.2029    8.2443 C.ar    1  UNL1        0.0209
      6 C          60.8493   86.8757    9.2480 C.ar    1  UNL1        0.0091
      7 C          62.7257   89.7386   12.4797 C.ar    1  UNL1        0.1385
      8 C          63.4677   90.4182   11.3671 C.ar    1  UNL1        0.0375
      9 C          62.8516   89.9883   10.0688 C.ar    1  UNL1        0.0404
     10 C          61.7289   89.0431   10.3789 C.ar    1  UNL1        0.1464
     11 O          61.6511   88.8887   11.8689 O.2     1  UNL1       -0.4563
     12 N          63.4245   91.2131   14.5014 N.3     1  UNL1       -0.3148
     13 C          63.0087   89.8834   13.9456 C.3     1  UNL1        0.1307
     14 H          63.5743   91.1295   15.5069 H       1  UNL1        0.1192
     15 H          62.6922   91.9003   14.3228 H       1  UNL1        0.1192
     16 C          61.7474   86.0539   10.1245 C.ar    1  UNL1        0.0410
     17 C          61.6518   85.9313   11.6164 C.ar    1  UNL1        0.0438
     18 C          62.7440   85.0121   12.0769 C.ar    1  UNL1        0.1798
     19 O          63.5147   84.5666   10.8696 O.2     1  UNL1       -0.4473
     20 C          62.8987   85.2104    9.6630 C.ar    1  UNL1        0.1797
@<TRIPOS>BOND
     1    12    13    1
     2    13     7    1
     3     7     8   ar
     4     8     9   ar
     5     9    10   ar
     6    10     1    1
     7     1     2   ar
     8     2     3   ar
     9     3     4   ar
    10     4     5   ar
    11     5     6   ar
    12     6    16    1
    13    16    17   ar
    14    17    18   ar
    15    18    19   ar
    16    19    20   ar
    17    10    11   ar
    18    11     7   ar
    19     6     1   ar
    20    20    16   ar
    21    12    14    1
    22    12    15    1
@<TRIPOS>MOLECULE
*****
 20 22 0 0 0
SMALL
GASTEIGER

@<TRIPOS>ATOM
      1 C          63.8645   90.9397   11.9644 C.ar    1  UNL1        0.0538
      2 C          64.3158   91.8838   10.8897 C.ar    1  UNL1        0.1019
      3 N          65.4624   92.8169   11.1442 N.ar    1  UNL1       -0.2422
      4 C          66.1575   92.8058   12.4734 C.ar    1  UNL1        0.0989
      5 C          65.7062   91.8617   13.5480 C.ar    1  UNL1        0.0209
      6 C          64.5597   90.9287   13.2935 C.ar    1  UNL1        0.0091
      7 C          61.4368   88.0112   11.1925 C.ar    1  UNL1        0.1385
      8 C          60.4702   89.1303   11.4442 C.ar    1  UNL1        0.0375
      9 C          61.2620   90.3635   11.7640 C.ar    1  UNL1        0.0404
     10 C          62.7179   90.0066   11.7099 C.ar    1  UNL1        0.1464
     11 O          62.8259   88.5528   11.3568 O.2     1  UNL1       -0.4563
     12 N          61.9102   85.4616   11.3522 N.3     1  UNL1       -0.3148
     13 C          61.0773   86.5985   10.8387 C.3     1  UNL1        0.1307
     14 H          61.5246   84.5790   11.0167 H       1  UNL1        0.1192
     15 H          61.9043   85.4693   12.3722 H       1  UNL1        0.1192
     16 C          64.1083   89.9845   14.3682 C.ar    1  UNL1        0.0410
     17 C          63.3786   90.3613   15.6234 C.ar    1  UNL1        0.0438
     18 C          63.1267   89.1074   16.4072 C.ar    1  UNL1        0.1798
     19 O          63.7007   87.9557   15.6364 O.2     1  UNL1       -0.4473
     20 C          64.3073   88.4978   14.3762 C.ar    1  UNL1        0.1797
@<TRIPOS>BOND
     1    12    13    1
     2    13     7    1
     3     7     8   ar
     4     8     9   ar
     5     9    10   ar
     6    10     1    1
     7     1     2   ar
     8     2     3   ar
     9     3     4   ar
    10     4     5   ar
    11     5     6   ar
    12     6    16    1
    13    16    17   ar
    14    17    18   ar
    15    18    19   ar
    16    19    20   ar
    17    10    11   ar
    18    11     7   ar
    19     6     1   ar
    20    20    16   ar
    21    12    14    1
    22    12    15    1
@<TRIPOS>MOLECULE
*****
 20 22 0 0 0
SMALL
GASTEIGER

@<TRIPOS>ATOM
      1 C          64.4706   91.4414   12.5141 C.ar    1  UNL1        0.0538
      2 C          63.3306   90.5486   12.9055 C.ar    1  UNL1        0.1019
      3 N          62.2734   90.1980   11.9009 N.ar    1  UNL1       -0.2422
      4 C          62.3563   90.7401   10.5047 C.ar    1  UNL1        0.0989
      5 C          63.4963   91.6329   10.1133 C.ar    1  UNL1        0.0209
      6 C          64.5534   91.9835   11.1179 C.ar    1  UNL1        0.0091
      7 C          67.1046   93.0530   14.8657 C.ar    1  UNL1        0.1385
      8 C          67.2048   91.6102   15.2639 C.ar    1  UNL1        0.0375
      9 C          66.2302   90.8310   14.4315 C.ar    1  UNL1        0.0404
     10 C          65.5278   91.7921   13.5188 C.ar    1  UNL1        0.1464
     11 O          66.0682   93.1653   13.7872 O.2     1  UNL1       -0.4563
     12 N          69.2680   93.9292   16.0069 N.3     1  UNL1       -0.3148
     13 C          67.9011   94.1847   15.4445 C.3     1  UNL1        0.1307
     14 H          69.6614   94.8036   16.3547 H       1  UNL1        0.1192
     15 H          69.8712   93.5518   15.2761 H       1  UNL1        0.1192
     16 C          65.6935   92.8763   10.7265 C.ar    1  UNL1        0.0410
     17 C          65.6481   94.3724   10.6277 C.ar    1  UNL1        0.0438
     18 C          67.0057   94.8504   10.2053 C.ar    1  UNL1        0.1798
     19 O          67.8902   93.6498   10.0430 O.2     1  UNL1       -0.4473
     20 C          67.0792   92.4298   10.3651 C.ar    1  UNL1        0.1797
@<TRIPOS>BOND
     1    12    13    1
     2    13     7    1
     3     7     8   ar
     4     8     9   ar
     5     9    10   ar
     6    10     1    1
     7     1     2   ar
     8     2     3   ar
     9     3     4   ar
    10     4     5   ar
    11     5     6   ar
    12     6    16    1
    13    16    17   ar
    14    17    18   ar
    15    18    19   ar
    16    19    20   ar
    17    10    11   ar
    18    11     7   ar
    19     6     1   ar
    20    20    16   ar
    21    12    14    1
    22    12    15    1
@<TRIPOS>MOLECULE
*****
 20 22 0 0 0
SMALL
GASTEIGER

@<TRIPOS>ATOM
      1 C          63.3571   84.1466   13.4917 C.ar    1  UNL1        0.0538
      2 C          63.5942   83.1935   14.6254 C.ar    1  UNL1        0.1019
      3 N          63.3117   81.7312   14.4473 N.ar    1  UNL1       -0.2422
      4 C          62.7920   81.2220   13.1356 C.ar    1  UNL1        0.0989
      5 C          62.5548   82.1752   12.0019 C.ar    1  UNL1        0.0209
      6 C          62.8374   83.6375   12.1800 C.ar    1  UNL1        0.0091
      7 C          63.6765   88.0114   13.3265 C.ar    1  UNL1        0.1385
      8 C          64.4723   87.7073   14.5611 C.ar    1  UNL1        0.0375
      9 C          64.4495   86.2226   14.7733 C.ar    1  UNL1        0.0404
     10 C          63.6396   85.6091   13.6698 C.ar    1  UNL1        0.1464
     11 O          63.1619   86.7146   12.7756 O.2     1  UNL1       -0.4563
     12 N          62.0969   90.0290   12.8971 N.3     1  UNL1       -0.3148
     13 C          63.4374   89.3732   12.7448 C.3     1  UNL1        0.1307
     14 H          62.1122   90.9430   12.4447 H       1  UNL1        0.1192
     15 H          61.8852   90.1437   13.8883 H       1  UNL1        0.1192
     16 C          62.6002   84.5907   11.0463 C.ar    1  UNL1        0.0410
     17 C          61.5048   85.6125   10.9680 C.ar    1  UNL1        0.0438
     18 C          61.6444   86.3427    9.6652 C.ar    1  UNL1        0.1798
     19 O          62.8261   85.7723    8.9383 O.2     1  UNL1       -0.4473
     20 C          63.4168   84.6895    9.7919 C.ar    1  UNL1        0.1797
@<TRIPOS>BOND
     1    12    13    1
     2    13     7    1
     3     7     8   ar
     4     8     9   ar
     5     9    10   ar
     6    10     1    1
     7     1     2   ar
     8     2     3   ar
     9     3     4   ar
    10     4     5   ar
    11     5     6   ar
    12     6    16    1
    13    16    17   ar
    14    17    18   ar
    15    18    19   ar
    16    19    20   ar
    17    10    11   ar
    18    11     7   ar
    19     6     1   ar
    20    20    16   ar
    21    12    14    1
    22    12    15    1
@<TRIPOS>MOLECULE
*****
 20 22 0 0 0
SMALL
GASTEIGER

@<TRIPOS>ATOM
      1 C          63.2482   84.5336   11.6534 C.ar    1  UNL1        0.0538
      2 C          63.5435   83.7975   10.3803 C.ar    1  UNL1        0.1019
      3 N          64.1962   82.4478   10.4285 N.ar    1  UNL1       -0.2422
      4 C          64.5537   81.8343   11.7498 C.ar    1  UNL1        0.0989
      5 C          64.2584   82.5705   13.0229 C.ar    1  UNL1        0.0209
      6 C          63.6057   83.9201   12.9747 C.ar    1  UNL1        0.0091
      7 C          62.1788   88.2574   11.8897 C.ar    1  UNL1        0.1385
      8 C          61.0030   87.6631   11.1725 C.ar    1  UNL1        0.0375
      9 C          61.2605   86.1959   10.9967 C.ar    1  UNL1        0.0404
     10 C          62.5954   85.8833   11.6052 C.ar    1  UNL1        0.1464
     11 O          63.1630   87.1574   12.1572 O.2     1  UNL1       -0.4563
     12 N          62.4113   90.0872   13.7194 N.3     1  UNL1       -0.3148
     13 C          62.3419   89.6986   12.2723 C.3     1  UNL1        0.1307
     14 H          62.5220   91.0983   13.7950 H       1  UNL1        0.1192
     15 H          63.2074   89.6242   14.1580 H       1  UNL1        0.1192
     16 C          63.3103   84.6564   14.2479 C.ar    1  UNL1        0.0410
     17 C          64.2043   85.6601   14.9136 C.ar    1  UNL1        0.0438
     18 C          63.5157   86.1422   16.1559 C.ar    1  UNL1        0.1798
     19 O          62.1960   85.4363   16.2580 O.2     1  UNL1       -0.4473
     20 C          62.0692   84.5181   15.0788 C.ar    1  UNL1        0.1797
@<TRIPOS>BOND
     1    12    13    1
     2    13     7    1
     3     7     8   ar
     4     8     9   ar
     5     9    10   ar
     6    10     1    1
     7     1     2   ar
     8     2     3   ar
     9     3     4   ar
    10     4     5   ar
    11     5     6   ar
    12     6    16    1
    13    16    17   ar
    14    17    18   ar
    15    18    19   ar
    16    19    20   ar
    17    10    11   ar
    18    11     7   ar
    19     6     1   ar
    20    20    16   ar
    21    12    14    1
    22    12    15    1
