@<TRIPOS>MOLECULE
*****
 27 30 0 0 0
SMALL
GASTEIGER

@<TRIPOS>ATOM
      1 C          65.9222   93.4935   12.1271 C.2     1  UNL1        0.0919
      2 C          66.4850   93.9457   13.4419 C.2     1  UNL1        0.0183
      3 C          66.2823   93.1108   14.6715 C.2     1  UNL1        0.0511
      4 C          65.5168   91.8237   14.5863 C.2     1  UNL1        0.2322
      5 N          65.1591   90.7982   15.6209 N.2     1  UNL1       -0.0308
      6 C          64.3752   89.7122   14.9455 C.2     1  UNL1        0.3774
      7 N          64.2484   90.0665   13.4935 N.2     1  UNL1       -0.0346
      8 C          64.9540   91.3715   13.2715 C.2     1  UNL1        0.2191
      9 C          65.1567   92.2064   12.0419 C.3     1  UNL1        0.1226
     10 C          63.8162   88.4870   15.6063 C.ar    1  UNL1        0.1157
     11 C          63.2229   88.5807   16.9807 C.ar    1  UNL1        0.0100
     12 C          62.6640   87.3556   17.6415 C.ar    1  UNL1        0.0004
     13 C          62.6983   86.0368   16.9278 C.ar    1  UNL1        0.0022
     14 C          63.2916   85.9431   15.5533 C.ar    1  UNL1        0.0277
     15 C          63.8506   87.1682   14.8925 C.ar    1  UNL1        0.1475
     16 F          64.4439   87.0745   13.5181 F       1  UNL1       -0.2039
     17 C          63.3260   84.6241   14.8395 C.ar    1  UNL1        0.0022
     18 C          62.2442   83.6132   15.0794 C.ar    1  UNL1        0.0001
     19 C          62.2786   82.2944   14.3657 C.ar    1  UNL1        0.0000
     20 C          63.3948   81.9865   13.4121 C.ar    1  UNL1        0.0000
     21 C          64.4766   82.9974   13.1723 C.ar    1  UNL1        0.0000
     22 C          64.4422   84.3163   13.8860 C.ar    1  UNL1        0.0001
     23 S          66.1248   94.3284   10.8976 S.O2    1  UNL1        0.0054
     24 O          66.0991   95.5712   11.7372 O.2     1  UNL1       -0.1689
     25 O          66.1506   93.0857   10.0580 O.2     1  UNL1       -0.1689
     26 C          67.6031   95.0508    8.8869 C.3     1  UNL1        0.0276
     27 C          66.3275   95.1633    9.6680 C.3     1  UNL1        0.1556
@<TRIPOS>BOND
     1    26    27    1
     2    27    23    1
     3    23    24    2
     4    23    25    2
     5    23     1    1
     6     1     2    2
     7     2     3    1
     8     3     4    2
     9     4     5    1
    10     5     6    2
    11     6    10    1
    12    10    11   ar
    13    11    12   ar
    14    12    13   ar
    15    13    14   ar
    16    14    17    1
    17    17    18   ar
    18    18    19   ar
    19    19    20   ar
    20    20    21   ar
    21    21    22   ar
    22    14    15   ar
    23    15    16    1
    24     6     7    1
    25     7     8    2
    26     8     9    1
    27     9     1    1
    28     8     4    1
    29    15    10   ar
    30    22    17   ar
@<TRIPOS>MOLECULE
*****
 27 30 0 0 0
SMALL
GASTEIGER

@<TRIPOS>ATOM
      1 C          65.9006   94.2081   11.2171 C.2     1  UNL1        0.0919
      2 C          66.1203   93.7979   12.6431 C.2     1  UNL1        0.0183
      3 C          65.4998   92.5357   13.1645 C.2     1  UNL1        0.0511
      4 C          64.6595   91.6838   12.2601 C.2     1  UNL1        0.2322
      5 N          63.9252   90.3963   12.4904 N.2     1  UNL1       -0.0308
      6 C          63.2517   90.0107   11.2067 C.2     1  UNL1        0.3774
      7 N          63.5697   91.0600   10.1831 N.2     1  UNL1       -0.0346
      8 C          64.4398   92.0940   10.8341 C.2     1  UNL1        0.2191
      9 C          65.0603   93.3562   10.3126 C.3     1  UNL1        0.1226
     10 C          62.4082   88.7901   10.9856 C.ar    1  UNL1        0.1157
     11 C          61.2013   88.8632   10.0979 C.ar    1  UNL1        0.0100
     12 C          60.3579   87.6427    9.8767 C.ar    1  UNL1        0.0004
     13 C          60.7214   86.3491   10.5433 C.ar    1  UNL1        0.0022
     14 C          61.9283   86.2760   11.4310 C.ar    1  UNL1        0.0277
     15 C          62.7717   87.4965   11.6522 C.ar    1  UNL1        0.1475
     16 F          63.9786   87.4234   12.5399 F       1  UNL1       -0.2039
     17 C          62.2917   84.9823   12.0976 C.ar    1  UNL1        0.0022
     18 C          62.2288   84.8648   13.5917 C.ar    1  UNL1        0.0001
     19 C          62.5923   83.5711   14.2582 C.ar    1  UNL1        0.0000
     20 C          63.0186   82.3949   13.4306 C.ar    1  UNL1        0.0000
     21 C          63.0815   82.5124   11.9366 C.ar    1  UNL1        0.0000
     22 C          62.7181   83.8061   11.2701 C.ar    1  UNL1        0.0001
     23 S          66.5212   95.4702   10.6956 S.O2    1  UNL1        0.0054
     24 O          65.7645   96.2648   11.7184 O.2     1  UNL1       -0.1689
     25 O          67.2778   94.6756    9.6729 O.2     1  UNL1       -0.1689
     26 C          67.4813   96.8552    8.7183 C.3     1  UNL1        0.0276
     27 C          67.1417   96.7323   10.1742 C.3     1  UNL1        0.1556
@<TRIPOS>BOND
     1    26    27    1
     2    27    23    1
     3    23    24    2
     4    23    25    2
     5    23     1    1
     6     1     2    2
     7     2     3    1
     8     3     4    2
     9     4     5    1
    10     5     6    2
    11     6    10    1
    12    10    11   ar
    13    11    12   ar
    14    12    13   ar
    15    13    14   ar
    16    14    17    1
    17    17    18   ar
    18    18    19   ar
    19    19    20   ar
    20    20    21   ar
    21    21    22   ar
    22    14    15   ar
    23    15    16    1
    24     6     7    1
    25     7     8    2
    26     8     9    1
    27     9     1    1
    28     8     4    1
    29    15    10   ar
    30    22    17   ar
@<TRIPOS>MOLECULE
*****
 27 30 0 0 0
SMALL
GASTEIGER

@<TRIPOS>ATOM
      1 C          65.2945   92.9587   11.6622 C.2     1  UNL1        0.0919
      2 C          64.3119   92.4473   10.6507 C.2     1  UNL1        0.0183
      3 C          63.5906   91.1546   10.8928 C.2     1  UNL1        0.0511
      4 C          63.8518   90.3733   12.1462 C.2     1  UNL1        0.2322
      5 N          63.2956   89.0764   12.6549 N.2     1  UNL1       -0.0308
      6 C          63.9344   88.7863   13.9807 C.2     1  UNL1        0.3774
      7 N          64.8854   89.9038   14.2915 N.2     1  UNL1       -0.0346
      8 C          64.8344   90.8846   13.1577 C.2     1  UNL1        0.2191
      9 C          65.5557   92.1774   12.9157 C.3     1  UNL1        0.1226
     10 C          63.6687   87.5887   14.8442 C.ar    1  UNL1        0.1157
     11 C          63.4921   87.7557   16.3243 C.ar    1  UNL1        0.0100
     12 C          63.2264   86.5583   17.1878 C.ar    1  UNL1        0.0004
     13 C          63.1374   85.1939   16.5710 C.ar    1  UNL1        0.0022
     14 C          63.3141   85.0269   15.0909 C.ar    1  UNL1        0.0277
     15 C          63.5797   86.2243   14.2274 C.ar    1  UNL1        0.1475
     16 F          63.7563   86.0573   12.7472 F       1  UNL1       -0.2039
     17 C          63.2250   83.6624   14.4741 C.ar    1  UNL1        0.0022
     18 C          64.3171   83.1761   13.5682 C.ar    1  UNL1        0.0001
     19 C          64.2280   81.8117   12.9515 C.ar    1  UNL1        0.0000
     20 C          63.0469   80.9335   13.2408 C.ar    1  UNL1        0.0000
     21 C          61.9548   81.4198   14.1468 C.ar    1  UNL1        0.0000
     22 C          62.0439   82.7842   14.7634 C.ar    1  UNL1        0.0001
     23 S          66.0158   94.2514   11.4202 S.O2    1  UNL1        0.0054
     24 O          65.9619   94.0047    9.9416 O.2     1  UNL1       -0.1689
     25 O          66.0696   94.4982   12.8988 O.2     1  UNL1       -0.1689
     26 C          66.0108   96.8479   11.3287 C.3     1  UNL1        0.0276
     27 C          66.7371   95.5442   11.1782 C.3     1  UNL1        0.1556
@<TRIPOS>BOND
     1    26    27    1
     2    27    23    1
     3    23    24    2
     4    23    25    2
     5    23     1    1
     6     1     2    2
     7     2     3    1
     8     3     4    2
     9     4     5    1
    10     5     6    2
    11     6    10    1
    12    10    11   ar
    13    11    12   ar
    14    12    13   ar
    15    13    14   ar
    16    14    17    1
    17    17    18   ar
    18    18    19   ar
    19    19    20   ar
    20    20    21   ar
    21    21    22   ar
    22    14    15   ar
    23    15    16    1
    24     6     7    1
    25     7     8    2
    26     8     9    1
    27     9     1    1
    28     8     4    1
    29    15    10   ar
    30    22    17   ar
@<TRIPOS>MOLECULE
*****
 27 30 0 0 0
SMALL
GASTEIGER

@<TRIPOS>ATOM
      1 C          66.7081   92.5809   14.1929 C.2     1  UNL1        0.0919
      2 C          66.6144   93.4514   12.9750 C.2     1  UNL1        0.0183
      3 C          65.5876   93.1591   11.9213 C.2     1  UNL1        0.0511
      4 C          64.6544   91.9963   12.0857 C.2     1  UNL1        0.2322
      5 N          63.5492   91.4663   11.2210 N.2     1  UNL1       -0.0308
      6 C          62.9598   90.2683   11.9046 C.2     1  UNL1        0.3774
      7 N          63.7007   90.0578   13.1917 N.2     1  UNL1       -0.0346
      8 C          64.7480   91.1259   13.3036 C.2     1  UNL1        0.2191
      9 C          65.7749   91.4182   14.3572 C.3     1  UNL1        0.1226
     10 C          61.8281   89.4282   11.3911 C.ar    1  UNL1        0.1157
     11 C          60.4484   89.6044   11.9527 C.ar    1  UNL1        0.0100
     12 C          59.3167   88.7644   11.4393 C.ar    1  UNL1        0.0004
     13 C          59.5648   87.7481   10.3643 C.ar    1  UNL1        0.0022
     14 C          60.9445   87.5719    9.8027 C.ar    1  UNL1        0.0277
     15 C          62.0761   88.4119   10.3161 C.ar    1  UNL1        0.1475
     16 F          63.4558   88.2357    9.7546 F       1  UNL1       -0.2039
     17 C          61.1925   86.5555    8.7277 C.ar    1  UNL1        0.0022
     18 C          62.5331   85.8917    8.6180 C.ar    1  UNL1        0.0001
     19 C          62.7811   84.8754    7.5431 C.ar    1  UNL1        0.0000
     20 C          61.6884   84.5230    6.5777 C.ar    1  UNL1        0.0000
     21 C          60.3478   85.1868    6.6874 C.ar    1  UNL1        0.0000
     22 C          60.0998   86.2030    7.7624 C.ar    1  UNL1        0.0001
     23 S          67.7349   92.8732   15.2466 S.O2    1  UNL1        0.0054
     24 O          66.6534   92.9320   16.2843 O.2     1  UNL1       -0.1689
     25 O          68.8165   92.8144   14.2088 O.2     1  UNL1       -0.1689
     26 C          69.6166   94.3936   16.1942 C.3     1  UNL1        0.0276
     27 C          68.7618   93.1655   16.3002 C.3     1  UNL1        0.1556
@<TRIPOS>BOND
     1    26    27    1
     2    27    23    1
     3    23    24    2
     4    23    25    2
     5    23     1    1
     6     1     2    2
     7     2     3    1
     8     3     4    2
     9     4     5    1
    10     5     6    2
    11     6    10    1
    12    10    11   ar
    13    11    12   ar
    14    12    13   ar
    15    13    14   ar
    16    14    17    1
    17    17    18   ar
    18    18    19   ar
    19    19    20   ar
    20    20    21   ar
    21    21    22   ar
    22    14    15   ar
    23    15    16    1
    24     6     7    1
    25     7     8    2
    26     8     9    1
    27     9     1    1
    28     8     4    1
    29    15    10   ar
    30    22    17   ar
@<TRIPOS>MOLECULE
*****
 27 30 0 0 0
SMALL
GASTEIGER

@<TRIPOS>ATOM
      1 C          64.7184   90.5092   14.2089 C.2     1  UNL1        0.0919
      2 C          64.7383   89.0863   14.6832 C.2     1  UNL1        0.0183
      3 C          63.9996   88.0297   13.9165 C.2     1  UNL1        0.0511
      4 C          63.2411   88.3959   12.6753 C.2     1  UNL1        0.2322
      5 N          62.4252   87.5772   11.7194 N.2     1  UNL1       -0.0308
      6 C          61.9010   88.4940   10.6542 C.2     1  UNL1        0.3774
      7 N          62.3930   89.8794   10.9518 N.2     1  UNL1       -0.0346
      8 C          63.2213   89.8188   12.2010 C.2     1  UNL1        0.2191
      9 C          63.9599   90.8754   12.9677 C.3     1  UNL1        0.1226
     10 C          61.0366   88.0954    9.4948 C.ar    1  UNL1        0.1157
     11 C          60.6458   86.6591    9.3097 C.ar    1  UNL1        0.0100
     12 C          59.7814   86.2604    8.1505 C.ar    1  UNL1        0.0004
     13 C          59.3078   87.2981    7.1764 C.ar    1  UNL1        0.0022
     14 C          59.6986   88.7344    7.3615 C.ar    1  UNL1        0.0277
     15 C          60.5630   89.1330    8.5207 C.ar    1  UNL1        0.1475
     16 F          60.9538   90.5694    8.7058 F       1  UNL1       -0.2039
     17 C          59.2250   89.7721    6.3873 C.ar    1  UNL1        0.0022
     18 C          57.7558   90.0079    6.1980 C.ar    1  UNL1        0.0001
     19 C          57.2823   91.0456    5.2238 C.ar    1  UNL1        0.0000
     20 C          58.2779   91.8473    4.4390 C.ar    1  UNL1        0.0000
     21 C          59.7471   91.6114    4.6283 C.ar    1  UNL1        0.0000
     22 C          60.2206   90.5738    5.6025 C.ar    1  UNL1        0.0001
     23 S          65.4571   91.5658   14.9756 S.O2    1  UNL1        0.0054
     24 O          64.2887   91.7079   15.9054 O.2     1  UNL1       -0.1689
     25 O          66.6255   91.4237   14.0458 O.2     1  UNL1       -0.1689
     26 C          67.3133   93.3801   15.0889 C.3     1  UNL1        0.0276
     27 C          66.1958   92.6224   15.7424 C.3     1  UNL1        0.1556
@<TRIPOS>BOND
     1    26    27    1
     2    27    23    1
     3    23    24    2
     4    23    25    2
     5    23     1    1
     6     1     2    2
     7     2     3    1
     8     3     4    2
     9     4     5    1
    10     5     6    2
    11     6    10    1
    12    10    11   ar
    13    11    12   ar
    14    12    13   ar
    15    13    14   ar
    16    14    17    1
    17    17    18   ar
    18    18    19   ar
    19    19    20   ar
    20    20    21   ar
    21    21    22   ar
    22    14    15   ar
    23    15    16    1
    24     6     7    1
    25     7     8    2
    26     8     9    1
    27     9     1    1
    28     8     4    1
    29    15    10   ar
    30    22    17   ar
@<TRIPOS>MOLECULE
*****
 27 30 0 0 0
SMALL
GASTEIGER

@<TRIPOS>ATOM
      1 C          62.7619   85.2274   13.1545 C.2     1  UNL1        0.0919
      2 C          62.0584   85.7938   11.9569 C.2     1  UNL1        0.0183
      3 C          62.2650   87.2296   11.5752 C.2     1  UNL1        0.0511
      4 C          63.1751   88.0991   12.3911 C.2     1  UNL1        0.2322
      5 N          63.5709   89.5399   12.2595 N.2     1  UNL1       -0.0308
      6 C          64.5191   89.8640   13.3758 C.2     1  UNL1        0.3774
      7 N          64.7092   88.6235   14.1973 N.2     1  UNL1       -0.0346
      8 C          63.8786   87.5327   13.5887 C.2     1  UNL1        0.2191
      9 C          63.6720   86.0969   13.9704 C.3     1  UNL1        0.1226
     10 C          65.1638   91.1950   13.6264 C.ar    1  UNL1        0.1157
     11 C          65.4902   91.6182   15.0280 C.ar    1  UNL1        0.0100
     12 C          66.1349   92.9491   15.2788 C.ar    1  UNL1        0.0004
     13 C          66.4533   93.8569   14.1279 C.ar    1  UNL1        0.0022
     14 C          66.1270   93.4337   12.7263 C.ar    1  UNL1        0.0277
     15 C          65.4822   92.1028   12.4756 C.ar    1  UNL1        0.1475
     16 F          65.1559   91.6796   11.0740 F       1  UNL1       -0.2039
     17 C          66.4454   94.3416   11.5754 C.ar    1  UNL1        0.0022
     18 C          67.1293   93.7962   10.3569 C.ar    1  UNL1        0.0001
     19 C          67.4477   94.7041    9.2061 C.ar    1  UNL1        0.0000
     20 C          67.0821   96.1573    9.2738 C.ar    1  UNL1        0.0000
     21 C          66.3982   96.7026   10.4923 C.ar    1  UNL1        0.0000
     22 C          66.0798   95.7948   11.6431 C.ar    1  UNL1        0.0001
     23 S          62.5552   83.7916   13.5362 S.O2    1  UNL1        0.0054
     24 O          62.8248   83.3764   12.1202 O.2     1  UNL1       -0.1689
     25 O          62.2857   84.2068   14.9522 O.2     1  UNL1       -0.1689
     26 C          62.3935   81.2864   12.8670 C.3     1  UNL1        0.0276
     27 C          62.3486   82.3558   13.9179 C.3     1  UNL1        0.1556
@<TRIPOS>BOND
     1    26    27    1
     2    27    23    1
     3    23    24    2
     4    23    25    2
     5    23     1    1
     6     1     2    2
     7     2     3    1
     8     3     4    2
     9     4     5    1
    10     5     6    2
    11     6    10    1
    12    10    11   ar
    13    11    12   ar
    14    12    13   ar
    15    13    14   ar
    16    14    17    1
    17    17    18   ar
    18    18    19   ar
    19    19    20   ar
    20    20    21   ar
    21    21    22   ar
    22    14    15   ar
    23    15    16    1
    24     6     7    1
    25     7     8    2
    26     8     9    1
    27     9     1    1
    28     8     4    1
    29    15    10   ar
    30    22    17   ar
@<TRIPOS>MOLECULE
*****
 27 30 0 0 0
SMALL
GASTEIGER

@<TRIPOS>ATOM
      1 C          66.1725   92.4041   15.2832 C.2     1  UNL1        0.0919
      2 C          65.1105   92.2383   16.3294 C.2     1  UNL1        0.0183
      3 C          63.9724   91.2887   16.0991 C.2     1  UNL1        0.0511
      4 C          63.8963   90.5050   14.8224 C.2     1  UNL1        0.2322
      5 N          62.9014   89.5020   14.3182 N.2     1  UNL1       -0.0308
      6 C          63.3485   89.0479   12.9603 C.2     1  UNL1        0.3774
      7 N          64.6197   89.7702   12.6253 N.2     1  UNL1       -0.0346
      8 C          64.9583   90.6707   13.7762 C.2     1  UNL1        0.2191
      9 C          66.0964   91.6203   14.0066 C.3     1  UNL1        0.1226
     10 C          62.6475   88.0471   12.0902 C.ar    1  UNL1        0.1157
     11 C          61.6126   88.5043   11.1052 C.ar    1  UNL1        0.0100
     12 C          60.9116   87.5036   10.2351 C.ar    1  UNL1        0.0004
     13 C          61.2453   86.0457   10.3500 C.ar    1  UNL1        0.0022
     14 C          62.2802   85.5886   11.3350 C.ar    1  UNL1        0.0277
     15 C          62.9812   86.5892   12.2051 C.ar    1  UNL1        0.1475
     16 F          64.0160   86.1321   13.1900 F       1  UNL1       -0.2039
     17 C          62.6139   84.1306   11.4498 C.ar    1  UNL1        0.0022
     18 C          62.1961   83.3592   12.6665 C.ar    1  UNL1        0.0001
     19 C          62.5298   81.9013   12.7813 C.ar    1  UNL1        0.0000
     20 C          63.2814   81.2149   11.6794 C.ar    1  UNL1        0.0000
     21 C          63.6992   81.9864   10.4628 C.ar    1  UNL1        0.0000
     22 C          63.3654   83.4442   10.3480 C.ar    1  UNL1        0.0001
     23 S          67.3106   93.3536   15.5136 S.O2    1  UNL1        0.0054
     24 O          67.8325   92.4639   16.6026 O.2     1  UNL1       -0.1689
     25 O          66.7887   94.2433   14.4245 O.2     1  UNL1       -0.1689
     26 C          69.8127   93.7732   16.0736 C.3     1  UNL1        0.0276
     27 C          68.4487   94.3032   15.7440 C.3     1  UNL1        0.1556
@<TRIPOS>BOND
     1    26    27    1
     2    27    23    1
     3    23    24    2
     4    23    25    2
     5    23     1    1
     6     1     2    2
     7     2     3    1
     8     3     4    2
     9     4     5    1
    10     5     6    2
    11     6    10    1
    12    10    11   ar
    13    11    12   ar
    14    12    13   ar
    15    13    14   ar
    16    14    17    1
    17    17    18   ar
    18    18    19   ar
    19    19    20   ar
    20    20    21   ar
    21    21    22   ar
    22    14    15   ar
    23    15    16    1
    24     6     7    1
    25     7     8    2
    26     8     9    1
    27     9     1    1
    28     8     4    1
    29    15    10   ar
    30    22    17   ar
@<TRIPOS>MOLECULE
*****
 27 30 0 0 0
SMALL
GASTEIGER

@<TRIPOS>ATOM
      1 C          66.3827   92.1700   14.9726 C.2     1  UNL1        0.0919
      2 C          65.5411   91.9076   16.1862 C.2     1  UNL1        0.0183
      3 C          64.2102   91.2305   16.0438 C.2     1  UNL1        0.0511
      4 C          63.7208   90.8159   14.6879 C.2     1  UNL1        0.2322
      5 N          62.4613   90.1354   14.2402 N.2     1  UNL1       -0.0308
      6 C          62.5244   89.9772   12.7499 C.2     1  UNL1        0.3774
      7 N          63.8229   90.5600   12.2765 N.2     1  UNL1       -0.0346
      8 C          64.5624   91.0783   13.4743 C.2     1  UNL1        0.2191
      9 C          65.8933   91.7554   13.6166 C.3     1  UNL1        0.1226
     10 C          61.4734   89.3469   11.8849 C.ar    1  UNL1        0.1157
     11 C          60.0328   89.7278   12.0572 C.ar    1  UNL1        0.0100
     12 C          58.9818   89.0975   11.1922 C.ar    1  UNL1        0.0004
     13 C          59.3714   88.0865   10.1550 C.ar    1  UNL1        0.0022
     14 C          60.8120   87.7056    9.9827 C.ar    1  UNL1        0.0277
     15 C          61.8630   88.3359   10.8476 C.ar    1  UNL1        0.1475
     16 F          63.3036   87.9550   10.6754 F       1  UNL1       -0.2039
     17 C          61.2016   86.6945    8.9454 C.ar    1  UNL1        0.0022
     18 C          60.2249   86.3016    7.8770 C.ar    1  UNL1        0.0001
     19 C          60.6145   85.2905    6.8398 C.ar    1  UNL1        0.0000
     20 C          61.9808   84.6724    6.8709 C.ar    1  UNL1        0.0000
     21 C          62.9576   85.0653    7.9393 C.ar    1  UNL1        0.0000
     22 C          62.5680   86.0764    8.9766 C.ar    1  UNL1        0.0001
     23 S          67.7136   92.8470   15.1149 S.O2    1  UNL1        0.0054
     24 O          68.1522   92.2600   13.8060 O.2     1  UNL1       -0.1689
     25 O          67.2750   93.4341   16.4237 O.2     1  UNL1       -0.1689
     26 C          69.2565   94.5418   16.3384 C.3     1  UNL1        0.0276
     27 C          69.0445   93.5241   15.2572 C.3     1  UNL1        0.1556
@<TRIPOS>BOND
     1    26    27    1
     2    27    23    1
     3    23    24    2
     4    23    25    2
     5    23     1    1
     6     1     2    2
     7     2     3    1
     8     3     4    2
     9     4     5    1
    10     5     6    2
    11     6    10    1
    12    10    11   ar
    13    11    12   ar
    14    12    13   ar
    15    13    14   ar
    16    14    17    1
    17    17    18   ar
    18    18    19   ar
    19    19    20   ar
    20    20    21   ar
    21    21    22   ar
    22    14    15   ar
    23    15    16    1
    24     6     7    1
    25     7     8    2
    26     8     9    1
    27     9     1    1
    28     8     4    1
    29    15    10   ar
    30    22    17   ar
@<TRIPOS>MOLECULE
*****
 27 30 0 0 0
SMALL
GASTEIGER

@<TRIPOS>ATOM
      1 C          61.1046   86.8228    8.6565 C.2     1  UNL1        0.0919
      2 C          60.2487   88.0447    8.5011 C.2     1  UNL1        0.0183
      3 C          60.3304   89.1510    9.5107 C.2     1  UNL1        0.0511
      4 C          61.2681   89.0354   10.6758 C.2     1  UNL1        0.2322
      5 N          61.5633   89.9569   11.8219 N.2     1  UNL1       -0.0308
      6 C          62.6018   89.3045   12.6856 C.2     1  UNL1        0.3774
      7 N          62.9483   87.9798   12.0734 N.2     1  UNL1       -0.0346
      8 C          62.1240   87.8134   10.8312 C.2     1  UNL1        0.2191
      9 C          62.0423   86.7071    9.8215 C.3     1  UNL1        0.1226
     10 C          63.1903   89.8765   13.9412 C.ar    1  UNL1        0.1157
     11 C          62.4534   89.7477   15.2413 C.ar    1  UNL1        0.0100
     12 C          63.0419   90.3197   16.4969 C.ar    1  UNL1        0.0004
     13 C          64.3673   91.0205   16.4524 C.ar    1  UNL1        0.0022
     14 C          65.1043   91.1493   15.1522 C.ar    1  UNL1        0.0277
     15 C          64.5158   90.5773   13.8967 C.ar    1  UNL1        0.1475
     16 F          65.2527   90.7062   12.5966 F       1  UNL1       -0.2039
     17 C          66.4298   91.8501   15.1077 C.ar    1  UNL1        0.0022
     18 C          67.3733   91.5987   13.9691 C.ar    1  UNL1        0.0001
     19 C          68.6987   92.2995   13.9246 C.ar    1  UNL1        0.0000
     20 C          69.0806   93.2518   15.0188 C.ar    1  UNL1        0.0000
     21 C          68.1372   93.5033   16.1575 C.ar    1  UNL1        0.0000
     22 C          66.8117   92.8024   16.2019 C.ar    1  UNL1        0.0001
     23 S          61.0229   85.7164    7.6468 S.O2    1  UNL1        0.0054
     24 O          59.5974   86.0841    7.3593 O.2     1  UNL1       -0.1689
     25 O          62.4484   85.3488    7.9343 O.2     1  UNL1       -0.1689
     26 C          62.1041   84.3346    5.7307 C.3     1  UNL1        0.0276
     27 C          60.9412   84.6101    6.6372 C.3     1  UNL1        0.1556
@<TRIPOS>BOND
     1    26    27    1
     2    27    23    1
     3    23    24    2
     4    23    25    2
     5    23     1    1
     6     1     2    2
     7     2     3    1
     8     3     4    2
     9     4     5    1
    10     5     6    2
    11     6    10    1
    12    10    11   ar
    13    11    12   ar
    14    12    13   ar
    15    13    14   ar
    16    14    17    1
    17    17    18   ar
    18    18    19   ar
    19    19    20   ar
    20    20    21   ar
    21    21    22   ar
    22    14    15   ar
    23    15    16    1
    24     6     7    1
    25     7     8    2
    26     8     9    1
    27     9     1    1
    28     8     4    1
    29    15    10   ar
    30    22    17   ar
