@<TRIPOS>MOLECULE
*****
 35 39 0 0 0
SMALL
GASTEIGER

@<TRIPOS>ATOM
      1 C          63.6912   87.3252   13.5015 C.3     1  UNL1        0.0744
      2 C          64.4387   86.8637   14.7173 C.3     1  UNL1        0.0121
      3 C          63.5286   85.9006   13.0608 C.ar    1  UNL1       -0.0159
      4 C          64.3657   84.8227   13.6833 C.ar    1  UNL1       -0.0039
      5 C          64.2031   83.3982   13.2425 C.ar    1  UNL1       -0.0002
      6 C          63.2034   83.0516   12.1793 C.ar    1  UNL1        0.0030
      7 C          62.3663   84.1294   11.5568 C.ar    1  UNL1       -0.0002
      8 C          62.5289   85.5539   11.9976 C.ar    1  UNL1       -0.0039
      9 C          63.0408   81.6270   11.7385 C.ar    1  UNL1        0.0384
     10 C          62.6916   80.5670   12.7407 C.ar    1  UNL1        0.1033
     11 N          62.5291   79.1424   12.3000 N.ar    1  UNL1       -0.2125
     12 C          62.7157   78.7779   10.8570 C.ar    1  UNL1        0.2137
     13 N          62.5532   77.3534   10.4162 N.pl3   1  UNL1       -0.3274
     14 N          63.0649   79.8379    9.8547 N.ar    1  UNL1       -0.2125
     15 C          63.2275   81.2624   10.2955 C.ar    1  UNL1        0.1033
     16 H          62.3240   76.6577   11.0740 H       1  UNL1        0.1452
     17 H          62.6757   77.1141    9.4691 H       1  UNL1        0.1452
     18 C          64.6170   91.0492   14.0841 C.ar    1  UNL1        0.2628
     19 N          64.7794   89.7608   13.3334 N.ar    1  UNL1       -0.1907
     20 C          63.8538   88.7497   13.9423 C.ar    1  UNL1        0.1837
     21 N          63.1193   89.4132   15.0694 N.ar    1  UNL1       -0.0599
     22 O          63.5909   90.8344   15.1571 O.2     1  UNL1       -0.3326
     23 N          66.2350   94.2860   12.6803 N.ar    1  UNL1       -0.2478
     24 C          65.3836   93.0638   12.5034 C.ar    1  UNL1        0.1014
     25 C          65.3517   92.3280   13.8101 C.ar    1  UNL1        0.0956
     26 C          66.1834   93.0954   14.7946 C.ar    1  UNL1        0.1264
     27 N          66.7293   94.3055   14.0964 N.ar    1  UNL1       -0.1675
     28 C          66.5388   95.3091   11.6262 C.3     1  UNL1        0.1448
     29 C          66.1151   95.0723   10.2070 C.3     1  UNL1        0.0988
     30 C          68.0188   93.8413    8.9379 C.3     1  UNL1        0.0897
     31 N          67.1407   95.0448    9.1128 N.3     1  UNL1       -0.2686
     32 C          67.2883   96.2208    8.1934 C.3     1  UNL1        0.0897
     33 C          62.9437   87.7867   12.2858 C.3     1  UNL1        0.0106
     34 C          62.7540   87.7817   10.7978 C.3     1  UNL1        0.0008
     35 C          61.8386   88.5910   11.6679 C.3     1  UNL1        0.0008
@<TRIPOS>BOND
     1    30    31    1
     2    31    32    1
     3    31    29    1
     4    29    28    1
     5    28    23    1
     6    23    24   ar
     7    24    25   ar
     8    25    18    1
     9    18    19   ar
    10    19    20   ar
    11    20     1    1
    12     1     2    1
    13     1     3    1
    14     3     4   ar
    15     4     5   ar
    16     5     6   ar
    17     6     9    1
    18     9    10   ar
    19    10    11   ar
    20    11    12   ar
    21    12    13    1
    22    12    14   ar
    23    14    15   ar
    24     6     7   ar
    25     7     8   ar
    26     1    33    1
    27    33    34    1
    28    34    35    1
    29    20    21   ar
    30    21    22   ar
    31    25    26   ar
    32    26    27   ar
    33    27    23   ar
    34    22    18   ar
    35     8     3   ar
    36    35    33    1
    37    15     9   ar
    38    13    16    1
    39    13    17    1
@<TRIPOS>MOLECULE
*****
 35 39 0 0 0
SMALL
GASTEIGER

@<TRIPOS>ATOM
      1 C          63.5505   87.3590   13.2174 C.3     1  UNL1        0.0744
      2 C          62.9544   87.7790   11.9066 C.3     1  UNL1        0.0121
      3 C          63.4101   85.9194   12.8199 C.ar    1  UNL1       -0.0159
      4 C          62.5656   85.5467   11.6376 C.ar    1  UNL1       -0.0039
      5 C          62.4253   84.1072   11.2401 C.ar    1  UNL1       -0.0002
      6 C          63.1294   83.0403   12.0250 C.ar    1  UNL1        0.0030
      7 C          63.9739   83.4130   13.2073 C.ar    1  UNL1       -0.0002
      8 C          64.1143   84.8525   13.6047 C.ar    1  UNL1       -0.0039
      9 C          62.9890   81.6007   11.6275 C.ar    1  UNL1        0.0384
     10 C          63.1988   81.1931   10.1993 C.ar    1  UNL1        0.1033
     11 N          63.0584   79.7536    9.8018 N.ar    1  UNL1       -0.2125
     12 C          62.7082   78.7216   10.8325 C.ar    1  UNL1        0.2137
     13 N          62.5678   77.2821   10.4351 N.pl3   1  UNL1       -0.3274
     14 N          62.4985   79.1293   12.2608 N.ar    1  UNL1       -0.2125
     15 C          62.6389   80.5688   12.6583 C.ar    1  UNL1        0.1033
     16 H          62.7055   77.0145    9.4977 H       1  UNL1        0.1452
     17 H          62.3380   76.6048   11.1116 H       1  UNL1        0.1452
     18 C          64.4965   91.0828   13.7680 C.ar    1  UNL1        0.2628
     19 N          64.7273   89.7564   13.1067 N.ar    1  UNL1       -0.1907
     20 C          63.6909   88.7985   13.6148 C.ar    1  UNL1        0.1837
     21 N          62.8195   89.5329   14.5902 N.ar    1  UNL1       -0.0599
     22 O          63.3173   90.9447   14.6849 O.2     1  UNL1       -0.3326
     23 N          66.2561   94.3121   12.5269 N.ar    1  UNL1       -0.2478
     24 C          65.3109   93.1683   12.3077 C.ar    1  UNL1        0.1014
     25 C          65.3031   92.3287   13.5506 C.ar    1  UNL1        0.0956
     26 C          66.2436   92.9535   14.5379 C.ar    1  UNL1        0.1264
     27 N          66.8326   94.1794   13.9053 N.ar    1  UNL1       -0.1675
     28 C          66.5699   95.3981   11.5408 C.3     1  UNL1        0.1448
     29 C          66.0841   95.2896   10.1258 C.3     1  UNL1        0.0988
     30 C          67.9295   93.8853    8.9542 C.3     1  UNL1        0.0897
     31 N          67.0672   95.1116    9.0070 N.3     1  UNL1       -0.2686
     32 C          67.1881   96.1599    7.9409 C.3     1  UNL1        0.0897
     33 C          64.1466   86.9390   14.5282 C.3     1  UNL1        0.0106
     34 C          65.3452   86.5728   15.3523 C.3     1  UNL1        0.0008
     35 C          63.9804   86.5776   15.9745 C.3     1  UNL1        0.0008
@<TRIPOS>BOND
     1    30    31    1
     2    31    32    1
     3    31    29    1
     4    29    28    1
     5    28    23    1
     6    23    24   ar
     7    24    25   ar
     8    25    18    1
     9    18    19   ar
    10    19    20   ar
    11    20     1    1
    12     1     2    1
    13     1     3    1
    14     3     4   ar
    15     4     5   ar
    16     5     6   ar
    17     6     9    1
    18     9    10   ar
    19    10    11   ar
    20    11    12   ar
    21    12    13    1
    22    12    14   ar
    23    14    15   ar
    24     6     7   ar
    25     7     8   ar
    26     1    33    1
    27    33    34    1
    28    34    35    1
    29    20    21   ar
    30    21    22   ar
    31    25    26   ar
    32    26    27   ar
    33    27    23   ar
    34    22    18   ar
    35     8     3   ar
    36    35    33    1
    37    15     9   ar
    38    13    16    1
    39    13    17    1
@<TRIPOS>MOLECULE
*****
 35 39 0 0 0
SMALL
GASTEIGER

@<TRIPOS>ATOM
      1 C          60.4251   87.9863    8.1632 C.3     1  UNL1        0.0744
      2 C          60.0142   86.8789    7.2387 C.3     1  UNL1        0.0121
      3 C          61.0187   86.9803    9.1044 C.ar    1  UNL1       -0.0159
      4 C          60.6461   87.0012   10.5572 C.ar    1  UNL1       -0.0039
      5 C          61.2396   85.9952   11.4982 C.ar    1  UNL1       -0.0002
      6 C          62.2057   84.9682   10.9865 C.ar    1  UNL1        0.0030
      7 C          62.5783   84.9473    9.5337 C.ar    1  UNL1       -0.0002
      8 C          61.9848   85.9533    8.5926 C.ar    1  UNL1       -0.0039
      9 C          62.7993   83.9622   11.9276 C.ar    1  UNL1        0.0384
     10 C          62.8024   82.5067   11.5651 C.ar    1  UNL1        0.1033
     11 N          63.3959   81.5007   12.5063 N.ar    1  UNL1       -0.2125
     12 C          63.9863   81.9502   13.8099 C.ar    1  UNL1        0.2137
     13 N          64.5798   80.9443   14.7510 N.pl3   1  UNL1       -0.3274
     14 N          63.9831   83.4058   14.1723 N.ar    1  UNL1       -0.2125
     15 C          63.3896   84.4118   13.2312 C.ar    1  UNL1        0.1033
     16 H          64.5819   79.9889   14.5131 H       1  UNL1        0.1452
     17 H          64.9673   81.2393   15.6066 H       1  UNL1        0.1452
     18 C          59.6027   90.6979    5.5107 C.ar    1  UNL1        0.2628
     19 N          60.5901   89.8386    6.2432 N.ar    1  UNL1       -0.1907
     20 C          59.8316   88.9922    7.2221 C.ar    1  UNL1        0.1837
     21 N          58.3753   89.3285    7.0946 N.ar    1  UNL1       -0.0599
     22 O          58.2338   90.3826    6.0370 O.2     1  UNL1       -0.3326
     23 N          61.1101   92.9351    2.7200 N.ar    1  UNL1       -0.2478
     24 C          61.2241   91.7997    3.6935 C.ar    1  UNL1        0.1014
     25 C          59.9271   91.6971    4.4400 C.ar    1  UNL1        0.0956
     26 C          59.0115   92.7691    3.9278 C.ar    1  UNL1        0.1264
     27 N          59.7426   93.5342    2.8648 N.ar    1  UNL1       -0.1675
     28 C          62.1764   93.3913    1.7686 C.3     1  UNL1        0.1448
     29 C          63.6121   93.4067    2.2026 C.3     1  UNL1        0.0988
     30 C          64.9899   95.5797    2.5632 C.3     1  UNL1        0.0897
     31 N          64.5440   94.4566    1.6743 N.3     1  UNL1       -0.2686
     32 C          65.0300   94.3836    0.2571 C.3     1  UNL1        0.0897
     33 C          60.8361   89.0937    9.0877 C.3     1  UNL1        0.0106
     34 C          61.9109   89.9341    9.7109 C.3     1  UNL1        0.0008
     35 C          60.4730   90.1714   10.0658 C.3     1  UNL1        0.0008
@<TRIPOS>BOND
     1    30    31    1
     2    31    32    1
     3    31    29    1
     4    29    28    1
     5    28    23    1
     6    23    24   ar
     7    24    25   ar
     8    25    18    1
     9    18    19   ar
    10    19    20   ar
    11    20     1    1
    12     1     2    1
    13     1     3    1
    14     3     4   ar
    15     4     5   ar
    16     5     6   ar
    17     6     9    1
    18     9    10   ar
    19    10    11   ar
    20    11    12   ar
    21    12    13    1
    22    12    14   ar
    23    14    15   ar
    24     6     7   ar
    25     7     8   ar
    26     1    33    1
    27    33    34    1
    28    34    35    1
    29    20    21   ar
    30    21    22   ar
    31    25    26   ar
    32    26    27   ar
    33    27    23   ar
    34    22    18   ar
    35     8     3   ar
    36    35    33    1
    37    15     9   ar
    38    13    16    1
    39    13    17    1
@<TRIPOS>MOLECULE
*****
 35 39 0 0 0
SMALL
GASTEIGER

@<TRIPOS>ATOM
      1 C          60.4135   87.9563    8.1815 C.3     1  UNL1        0.0744
      2 C          59.9915   86.8459    7.2656 C.3     1  UNL1        0.0121
      3 C          61.0181   86.9534    9.1189 C.ar    1  UNL1       -0.0159
      4 C          60.6524   86.9707   10.5735 C.ar    1  UNL1       -0.0039
      5 C          61.2570   85.9678   11.5108 C.ar    1  UNL1       -0.0002
      6 C          62.2273   84.9475   10.9935 C.ar    1  UNL1        0.0030
      7 C          62.5930   84.9302    9.5389 C.ar    1  UNL1       -0.0002
      8 C          61.9884   85.9331    8.6016 C.ar    1  UNL1       -0.0039
      9 C          62.8318   83.9446   11.9309 C.ar    1  UNL1        0.0384
     10 C          63.4566   84.4006   13.2160 C.ar    1  UNL1        0.1033
     11 N          64.0612   83.3977   14.1534 N.ar    1  UNL1       -0.2125
     12 C          64.0410   81.9387   13.8056 C.ar    1  UNL1        0.2137
     13 N          64.6455   80.9358   14.7429 N.pl3   1  UNL1       -0.3274
     14 N          63.4162   81.4827   12.5204 N.ar    1  UNL1       -0.2125
     15 C          62.8116   82.4856   11.5831 C.ar    1  UNL1        0.1033
     16 H          65.0556   81.2351   15.5864 H       1  UNL1        0.1452
     17 H          64.6323   79.9782   14.5146 H       1  UNL1        0.1452
     18 C          59.5617   90.6719    5.5424 C.ar    1  UNL1        0.2628
     19 N          60.5588   89.8228    6.2736 N.ar    1  UNL1       -0.1907
     20 C          59.8089   88.9592    7.2441 C.ar    1  UNL1        0.1837
     21 N          58.3483   89.2745    7.1126 N.ar    1  UNL1       -0.0599
     22 O          58.1955   90.3330    6.0609 O.2     1  UNL1       -0.3326
     23 N          61.0480   92.9505    2.7740 N.ar    1  UNL1       -0.2478
     24 C          61.1756   91.8121    3.7423 C.ar    1  UNL1        0.1014
     25 C          59.8756   91.6824    4.4792 C.ar    1  UNL1        0.0956
     26 C          58.9445   92.7407    3.9663 C.ar    1  UNL1        0.1264
     27 N          59.6691   93.5245    2.9124 N.ar    1  UNL1       -0.1675
     28 C          62.1125   93.4308    1.8325 C.3     1  UNL1        0.1448
     29 C          62.0636   93.0429    0.3844 C.3     1  UNL1        0.0988
     30 C          59.7708   92.2618   -0.5555 C.3     1  UNL1        0.0897
     31 N          60.8298   93.3160   -0.4239 N.3     1  UNL1       -0.2686
     32 C          60.6551   94.6433   -1.1005 C.3     1  UNL1        0.0897
     33 C          60.8355   89.0667    9.0973 C.3     1  UNL1        0.0106
     34 C          60.4826   90.1623   10.0591 C.3     1  UNL1        0.0008
     35 C          61.9194   89.8945    9.7218 C.3     1  UNL1        0.0008
@<TRIPOS>BOND
     1    30    31    1
     2    31    32    1
     3    31    29    1
     4    29    28    1
     5    28    23    1
     6    23    24   ar
     7    24    25   ar
     8    25    18    1
     9    18    19   ar
    10    19    20   ar
    11    20     1    1
    12     1     2    1
    13     1     3    1
    14     3     4   ar
    15     4     5   ar
    16     5     6   ar
    17     6     9    1
    18     9    10   ar
    19    10    11   ar
    20    11    12   ar
    21    12    13    1
    22    12    14   ar
    23    14    15   ar
    24     6     7   ar
    25     7     8   ar
    26     1    33    1
    27    33    34    1
    28    34    35    1
    29    20    21   ar
    30    21    22   ar
    31    25    26   ar
    32    26    27   ar
    33    27    23   ar
    34    22    18   ar
    35     8     3   ar
    36    35    33    1
    37    15     9   ar
    38    13    16    1
    39    13    17    1
@<TRIPOS>MOLECULE
*****
 35 39 0 0 0
SMALL
GASTEIGER

@<TRIPOS>ATOM
      1 C          60.4199   88.3591    8.4246 C.3     1  UNL1        0.0744
      2 C          60.9739   89.6051    9.0496 C.3     1  UNL1        0.0121
      3 C          61.0504   87.5353    9.5081 C.ar    1  UNL1       -0.0159
      4 C          62.1221   86.5426    9.1679 C.ar    1  UNL1       -0.0039
      5 C          62.7525   85.7188   10.2514 C.ar    1  UNL1       -0.0002
      6 C          62.3112   85.8878   11.6750 C.ar    1  UNL1        0.0030
      7 C          61.2394   86.8805   12.0151 C.ar    1  UNL1       -0.0002
      8 C          60.6090   87.7043   10.9317 C.ar    1  UNL1       -0.0039
      9 C          62.9416   85.0639   12.7585 C.ar    1  UNL1        0.0384
     10 C          62.7410   83.5776   12.7835 C.ar    1  UNL1        0.1033
     11 N          63.3715   82.7538   13.8670 N.ar    1  UNL1       -0.2125
     12 C          64.2026   83.4163   14.9254 C.ar    1  UNL1        0.2137
     13 N          64.8330   82.5926   16.0089 N.pl3   1  UNL1       -0.3274
     14 N          64.4032   84.9027   14.9004 N.ar    1  UNL1       -0.2125
     15 C          63.7727   85.7264   13.8169 C.ar    1  UNL1        0.1033
     16 H          64.7013   81.6171   16.0253 H       1  UNL1        0.1452
     17 H          65.3785   83.0274   16.7036 H       1  UNL1        0.1452
     18 C          59.4991   90.6713    5.4461 C.ar    1  UNL1        0.2628
     19 N          60.5187   90.0241    6.3358 N.ar    1  UNL1       -0.1907
     20 C          59.7895   89.1830    7.3412 C.ar    1  UNL1        0.1837
     21 N          58.3192   89.3104    7.0729 N.ar    1  UNL1       -0.0599
     22 O          58.1396   90.2302    5.9017 O.2     1  UNL1       -0.3326
     23 N          60.9680   92.9041    2.6315 N.ar    1  UNL1       -0.2478
     24 C          61.1475   91.9509    3.7757 C.ar    1  UNL1        0.1014
     25 C          59.7881   91.5971    4.3018 C.ar    1  UNL1        0.0956
     26 C          58.7685   92.3315    3.4828 C.ar    1  UNL1        0.1264
     27 N          59.4977   93.1393    2.4504 N.ar    1  UNL1       -0.1675
     28 C          62.0661   93.5148    1.8121 C.3     1  UNL1        0.1448
     29 C          63.4936   93.3823    2.2533 C.3     1  UNL1        0.0988
     30 C          64.9966   95.4701    2.6166 C.3     1  UNL1        0.0897
     31 N          64.5277   94.3427    1.7453 N.3     1  UNL1       -0.2686
     32 C          65.0931   94.1756    0.3660 C.3     1  UNL1        0.0897
     33 C          59.8659   87.1132    7.7995 C.3     1  UNL1        0.0106
     34 C          60.0799   85.8197    7.0708 C.3     1  UNL1        0.0008
     35 C          58.6923   86.2487    7.4456 C.3     1  UNL1        0.0008
@<TRIPOS>BOND
     1    30    31    1
     2    31    32    1
     3    31    29    1
     4    29    28    1
     5    28    23    1
     6    23    24   ar
     7    24    25   ar
     8    25    18    1
     9    18    19   ar
    10    19    20   ar
    11    20     1    1
    12     1     2    1
    13     1     3    1
    14     3     4   ar
    15     4     5   ar
    16     5     6   ar
    17     6     9    1
    18     9    10   ar
    19    10    11   ar
    20    11    12   ar
    21    12    13    1
    22    12    14   ar
    23    14    15   ar
    24     6     7   ar
    25     7     8   ar
    26     1    33    1
    27    33    34    1
    28    34    35    1
    29    20    21   ar
    30    21    22   ar
    31    25    26   ar
    32    26    27   ar
    33    27    23   ar
    34    22    18   ar
    35     8     3   ar
    36    35    33    1
    37    15     9   ar
    38    13    16    1
    39    13    17    1
@<TRIPOS>MOLECULE
*****
 35 39 0 0 0
SMALL
GASTEIGER

@<TRIPOS>ATOM
      1 C          60.4627   88.2991    8.4518 C.3     1  UNL1        0.0744
      2 C          61.0395   89.5342    9.0777 C.3     1  UNL1        0.0121
      3 C          61.0824   87.4625    9.5317 C.ar    1  UNL1       -0.0159
      4 C          62.1163   86.4334    9.1830 C.ar    1  UNL1       -0.0039
      5 C          62.7359   85.5968   10.2629 C.ar    1  UNL1       -0.0002
      6 C          62.3215   85.7895   11.6916 C.ar    1  UNL1        0.0030
      7 C          61.2875   86.8187   12.0404 C.ar    1  UNL1       -0.0002
      8 C          60.6680   87.6552   10.9604 C.ar    1  UNL1       -0.0039
      9 C          62.9411   84.9529   12.7716 C.ar    1  UNL1        0.0384
     10 C          62.7687   83.4629   12.7580 C.ar    1  UNL1        0.1033
     11 N          63.3884   82.6263   13.8380 N.ar    1  UNL1       -0.2125
     12 C          64.1804   83.2798   14.9315 C.ar    1  UNL1        0.2137
     13 N          64.8000   82.4433   16.0114 N.pl3   1  UNL1       -0.3274
     14 N          64.3528   84.7698   14.9450 N.ar    1  UNL1       -0.2125
     15 C          63.7332   85.6064   13.8650 C.ar    1  UNL1        0.1033
     16 H          64.6869   81.4654   16.0025 H       1  UNL1        0.1452
     17 H          65.3198   82.8722   16.7291 H       1  UNL1        0.1452
     18 C          59.5705   90.6603    5.5033 C.ar    1  UNL1        0.2628
     19 N          60.5805   90.0112    6.4025 N.ar    1  UNL1       -0.1907
     20 C          59.8431   89.1357    7.3719 C.ar    1  UNL1        0.1837
     21 N          58.3774   89.2437    7.0718 N.ar    1  UNL1       -0.0599
     22 O          58.2089   90.1859    5.9169 O.2     1  UNL1       -0.3326
     23 N          61.0506   92.8801    2.6842 N.ar    1  UNL1       -0.2478
     24 C          61.2117   91.8436    3.7565 C.ar    1  UNL1        0.1014
     25 C          59.8696   91.6160    4.3864 C.ar    1  UNL1        0.0956
     26 C          58.8790   92.5117    3.7035 C.ar    1  UNL1        0.1264
     27 N          59.6089   93.2930    2.6514 N.ar    1  UNL1       -0.1675
     28 C          62.1400   93.4106    1.7999 C.3     1  UNL1        0.1448
     29 C          62.0665   93.2077    0.3155 C.3     1  UNL1        0.0988
     30 C          60.5659   95.0298   -0.7701 C.3     1  UNL1        0.0897
     31 N          60.8246   93.5911   -0.4333 N.3     1  UNL1       -0.2686
     32 C          59.8414   92.5359   -0.8453 C.3     1  UNL1        0.0897
     33 C          59.8860   87.0640    7.8259 C.3     1  UNL1        0.0106
     34 C          58.7095   86.1750    7.5511 C.3     1  UNL1        0.0008
     35 C          60.0635   85.8137    7.0164 C.3     1  UNL1        0.0008
@<TRIPOS>BOND
     1    30    31    1
     2    31    32    1
     3    31    29    1
     4    29    28    1
     5    28    23    1
     6    23    24   ar
     7    24    25   ar
     8    25    18    1
     9    18    19   ar
    10    19    20   ar
    11    20     1    1
    12     1     2    1
    13     1     3    1
    14     3     4   ar
    15     4     5   ar
    16     5     6   ar
    17     6     9    1
    18     9    10   ar
    19    10    11   ar
    20    11    12   ar
    21    12    13    1
    22    12    14   ar
    23    14    15   ar
    24     6     7   ar
    25     7     8   ar
    26     1    33    1
    27    33    34    1
    28    34    35    1
    29    20    21   ar
    30    21    22   ar
    31    25    26   ar
    32    26    27   ar
    33    27    23   ar
    34    22    18   ar
    35     8     3   ar
    36    35    33    1
    37    15     9   ar
    38    13    16    1
    39    13    17    1
@<TRIPOS>MOLECULE
*****
 35 39 0 0 0
SMALL
GASTEIGER

@<TRIPOS>ATOM
      1 C          62.8080   86.6794   11.8103 C.3     1  UNL1        0.0744
      2 C          63.6009   86.5222   13.0739 C.3     1  UNL1        0.0121
      3 C          62.8103   85.1910   11.6238 C.ar    1  UNL1       -0.0159
      4 C          62.4193   84.2922   12.7592 C.ar    1  UNL1       -0.0039
      5 C          62.4216   82.8039   12.5726 C.ar    1  UNL1       -0.0002
      6 C          62.8148   82.2144   11.2506 C.ar    1  UNL1        0.0030
      7 C          63.2057   83.1132   10.1151 C.ar    1  UNL1       -0.0002
      8 C          63.2034   84.6015   10.3017 C.ar    1  UNL1       -0.0039
      9 C          62.8170   80.7260   11.0640 C.ar    1  UNL1        0.0384
     10 C          63.0303   80.1415    9.6991 C.ar    1  UNL1        0.1033
     11 N          63.0325   78.6531    9.5126 N.ar    1  UNL1       -0.2125
     12 C          62.8215   77.7492   10.6909 C.ar    1  UNL1        0.2137
     13 N          62.8237   76.2609   10.5044 N.pl3   1  UNL1       -0.3274
     14 N          62.6082   78.3338   12.0558 N.ar    1  UNL1       -0.2125
     15 C          62.6059   79.8221   12.2423 C.ar    1  UNL1        0.1033
     16 H          62.9637   75.8773    9.6086 H       1  UNL1        0.1452
     17 H          62.6852   75.6677   11.2778 H       1  UNL1        0.1452
     18 C          63.5507   90.4654   12.2338 C.ar    1  UNL1        0.2628
     19 N          64.0152   89.0545   12.0252 N.ar    1  UNL1       -0.1907
     20 C          62.8058   88.1677   11.9969 C.ar    1  UNL1        0.1837
     21 N          61.5938   89.0306   12.1880 N.ar    1  UNL1       -0.0599
     22 O          62.0541   90.4506   12.3344 O.2     1  UNL1       -0.3326
     23 N          65.8879   93.4109   13.1969 N.ar    1  UNL1       -0.2478
     24 C          65.1200   92.1748   13.5607 C.ar    1  UNL1        0.1014
     25 C          64.4286   91.6783   12.3256 C.ar    1  UNL1        0.0956
     26 C          64.7692   92.6075   11.1985 C.ar    1  UNL1        0.1264
     27 N          65.6711   93.6783   11.7369 N.ar    1  UNL1       -0.1675
     28 C          66.7255   94.2349   14.1293 C.3     1  UNL1        0.1448
     29 C          67.4202   93.5830   15.2879 C.3     1  UNL1        0.0988
     30 C          69.2767   92.1122   14.2202 C.3     1  UNL1        0.0897
     31 N          68.8643   93.1939   15.1741 N.3     1  UNL1       -0.2686
     32 C          69.8961   93.8864   16.0142 C.3     1  UNL1        0.0897
     33 C          62.0151   86.8366   10.5468 C.3     1  UNL1        0.0106
     34 C          61.9419   87.2188    9.0982 C.3     1  UNL1        0.0008
     35 C          60.7149   86.7268    9.8069 C.3     1  UNL1        0.0008
@<TRIPOS>BOND
     1    30    31    1
     2    31    32    1
     3    31    29    1
     4    29    28    1
     5    28    23    1
     6    23    24   ar
     7    24    25   ar
     8    25    18    1
     9    18    19   ar
    10    19    20   ar
    11    20     1    1
    12     1     2    1
    13     1     3    1
    14     3     4   ar
    15     4     5   ar
    16     5     6   ar
    17     6     9    1
    18     9    10   ar
    19    10    11   ar
    20    11    12   ar
    21    12    13    1
    22    12    14   ar
    23    14    15   ar
    24     6     7   ar
    25     7     8   ar
    26     1    33    1
    27    33    34    1
    28    34    35    1
    29    20    21   ar
    30    21    22   ar
    31    25    26   ar
    32    26    27   ar
    33    27    23   ar
    34    22    18   ar
    35     8     3   ar
    36    35    33    1
    37    15     9   ar
    38    13    16    1
    39    13    17    1
@<TRIPOS>MOLECULE
*****
 35 39 0 0 0
SMALL
GASTEIGER

@<TRIPOS>ATOM
      1 C          63.5538   85.9673   14.3417 C.3     1  UNL1        0.0744
      2 C          63.9735   85.3309   15.6336 C.3     1  UNL1        0.0121
      3 C          63.4110   84.6098   13.7195 C.ar    1  UNL1       -0.0159
      4 C          64.3508   84.1807   12.6320 C.ar    1  UNL1       -0.0039
      5 C          64.2080   82.8233   12.0099 C.ar    1  UNL1       -0.0002
      6 C          63.1255   81.8951   12.4752 C.ar    1  UNL1        0.0030
      7 C          62.1857   82.3243   13.5627 C.ar    1  UNL1       -0.0002
      8 C          62.3285   83.6816   14.1848 C.ar    1  UNL1       -0.0039
      9 C          62.9827   80.5377   11.8530 C.ar    1  UNL1        0.0384
     10 C          62.7104   79.3417   12.7164 C.ar    1  UNL1        0.1033
     11 N          62.5677   77.9843   12.0942 N.ar    1  UNL1       -0.2125
     12 C          62.6972   77.8229   10.6085 C.ar    1  UNL1        0.2137
     13 N          62.5544   76.4656    9.9863 N.pl3   1  UNL1       -0.3274
     14 N          62.9695   79.0190    9.7451 N.ar    1  UNL1       -0.2125
     15 C          63.1122   80.3763   10.3673 C.ar    1  UNL1        0.1033
     16 H          62.3757   75.6806   10.5530 H       1  UNL1        0.1452
     17 H          62.6394   76.3597    9.0112 H       1  UNL1        0.1452
     18 C          64.3203   89.6411   15.3320 C.ar    1  UNL1        0.2628
     19 N          64.4341   88.4909   14.3759 N.ar    1  UNL1       -0.1907
     20 C          63.6966   87.3246   14.9640 C.ar    1  UNL1        0.1837
     21 N          63.1269   87.7540   16.2835 N.ar    1  UNL1       -0.0599
     22 O          63.5123   89.1856   16.5110 O.2     1  UNL1       -0.3326
     23 N          66.0388   92.9178   14.1595 N.ar    1  UNL1       -0.2478
     24 C          65.6130   91.5009   13.9125 C.ar    1  UNL1        0.1014
     25 C          64.9107   91.0069   15.1424 C.ar    1  UNL1        0.0956
     26 C          64.9024   92.1185   16.1495 C.ar    1  UNL1        0.1264
     27 N          65.5996   93.2996   15.5420 N.ar    1  UNL1       -0.1675
     28 C          66.7746   93.7985   13.1935 C.3     1  UNL1        0.1448
     29 C          66.8847   93.4018   11.7511 C.3     1  UNL1        0.0988
     30 C          64.8899   92.6809   10.2507 C.3     1  UNL1        0.0897
     31 N          65.7880   93.7543   10.7905 N.3     1  UNL1       -0.2686
     32 C          65.5892   95.1803   10.3696 C.3     1  UNL1        0.0897
     33 C          63.1341   86.6036   13.0499 C.3     1  UNL1        0.0106
     34 C          63.1327   87.7829   12.1230 C.3     1  UNL1        0.0008
     35 C          62.4087   86.5265   11.7393 C.3     1  UNL1        0.0008
@<TRIPOS>BOND
     1    30    31    1
     2    31    32    1
     3    31    29    1
     4    29    28    1
     5    28    23    1
     6    23    24   ar
     7    24    25   ar
     8    25    18    1
     9    18    19   ar
    10    19    20   ar
    11    20     1    1
    12     1     2    1
    13     1     3    1
    14     3     4   ar
    15     4     5   ar
    16     5     6   ar
    17     6     9    1
    18     9    10   ar
    19    10    11   ar
    20    11    12   ar
    21    12    13    1
    22    12    14   ar
    23    14    15   ar
    24     6     7   ar
    25     7     8   ar
    26     1    33    1
    27    33    34    1
    28    34    35    1
    29    20    21   ar
    30    21    22   ar
    31    25    26   ar
    32    26    27   ar
    33    27    23   ar
    34    22    18   ar
    35     8     3   ar
    36    35    33    1
    37    15     9   ar
    38    13    16    1
    39    13    17    1
