@<TRIPOS>MOLECULE
*****
 26 28 0 0 0
SMALL
GASTEIGER

@<TRIPOS>ATOM
      1 N          64.3203   87.7177   14.5863 N.am    1  UNL1       -0.2987
      2 C          63.8052   89.1232   14.6823 C.2     1  UNL1        0.2460
      3 O          62.6843   89.4485   15.6246 O.2     1  UNL1       -0.2701
      4 H          65.0559   87.5042   13.9679 H       1  UNL1        0.1500
      5 C          64.4109   90.2034   13.8360 C.ar    1  UNL1        0.0534
      6 C          65.6331   90.9318   14.3112 C.ar    1  UNL1        0.0045
      7 C          66.2388   92.0120   13.4649 C.ar    1  UNL1        0.0002
      8 C          65.6224   92.3638   12.1434 C.ar    1  UNL1        0.0016
      9 C          64.4003   91.6354   11.6682 C.ar    1  UNL1        0.0002
     10 C          63.7945   90.5552   12.5145 C.ar    1  UNL1        0.0045
     11 C          66.2281   93.4440   11.2971 C.ar    1  UNL1        0.0226
     12 C          67.0063   93.0847   10.0661 C.ar    1  UNL1        0.0241
     13 C          67.6121   94.1649    9.2198 C.ar    1  UNL1        0.1222
     14 N          67.4396   95.6045    9.6045 N.ar    1  UNL1       -0.1464
     15 N          66.6614   95.9638   10.8354 N.ar    1  UNL1       -0.1464
     16 C          66.0556   94.8836   11.6817 C.ar    1  UNL1        0.1221
     17 C          63.7145   86.6375   15.4326 C.3     1  UNL1        0.0945
     18 C          63.3273   86.9258   16.8528 C.3     1  UNL1        0.0262
     19 C          63.9867   83.4924   13.0275 C.ar    1  UNL1        0.1385
     20 C          63.0591   82.5319   13.7108 C.ar    1  UNL1        0.0369
     21 C          62.3500   82.9399   14.9681 C.ar    1  UNL1        0.0028
     22 C          62.5685   84.3084   15.5420 C.ar    1  UNL1       -0.0025
     23 C          63.4960   85.2689   14.8587 C.ar    1  UNL1       -0.0015
     24 C          64.2051   84.8609   13.6014 C.ar    1  UNL1        0.0342
     25 C          63.9687   83.1056   10.4585 C.3     1  UNL1        0.2525
     26 O          64.6958   83.0844   11.7702 O.3     1  UNL1       -0.4714
@<TRIPOS>BOND
     1    25    26    1
     2    26    19    1
     3    19    20   ar
     4    20    21   ar
     5    21    22   ar
     6    22    23   ar
     7    23    17    1
     8    17    18    1
     9    17     1    1
    10     1     2   am
    11     2     3    2
    12     2     5    1
    13     5     6   ar
    14     6     7   ar
    15     7     8   ar
    16     8    11    1
    17    11    12   ar
    18    12    13   ar
    19    13    14   ar
    20    14    15   ar
    21    15    16   ar
    22     8     9   ar
    23     9    10   ar
    24    23    24   ar
    25    24    19   ar
    26    10     5   ar
    27    16    11   ar
    28     1     4    1
@<TRIPOS>MOLECULE
*****
 26 28 0 0 0
SMALL
GASTEIGER

@<TRIPOS>ATOM
      1 N          61.4830   88.8957   11.9319 N.am    1  UNL1       -0.2987
      2 C          62.2170   90.0572   11.3302 C.2     1  UNL1        0.2460
      3 O          61.7390   90.6610   10.0430 O.2     1  UNL1       -0.2701
      4 H          61.7968   88.4994   12.7768 H       1  UNL1        0.1500
      5 C          63.4291   90.6149   12.0157 C.ar    1  UNL1        0.0534
      6 C          63.7965   90.1429   13.3913 C.ar    1  UNL1        0.0045
      7 C          65.0086   90.7006   14.0768 C.ar    1  UNL1        0.0002
      8 C          65.8532   91.7303   13.3866 C.ar    1  UNL1        0.0016
      9 C          65.4859   92.2023   12.0110 C.ar    1  UNL1        0.0002
     10 C          64.2738   91.6445   11.3255 C.ar    1  UNL1        0.0045
     11 C          67.0653   92.2880   14.0720 C.ar    1  UNL1        0.0226
     12 C          66.9066   93.1890   15.2608 C.ar    1  UNL1        0.0241
     13 C          68.1187   93.7467   15.9463 C.ar    1  UNL1        0.1222
     14 N          69.4895   93.4035   15.4429 N.ar    1  UNL1       -0.1464
     15 N          69.6481   92.5026   14.2542 N.ar    1  UNL1       -0.1464
     16 C          68.4360   91.9448   13.5687 C.ar    1  UNL1        0.1221
     17 C          60.2710   88.3380   11.2465 C.3     1  UNL1        0.0945
     18 C          58.9025   88.6331   11.7850 C.3     1  UNL1        0.0262
     19 C          61.8380   85.8345    8.5956 C.ar    1  UNL1        0.1385
     20 C          60.7405   85.7793    7.5746 C.ar    1  UNL1        0.0369
     21 C          59.4865   86.5771    7.7775 C.ar    1  UNL1        0.0028
     22 C          59.3300   87.4299    9.0014 C.ar    1  UNL1       -0.0025
     23 C          60.4275   87.4851   10.0224 C.ar    1  UNL1       -0.0015
     24 C          61.6814   86.6874    9.8195 C.ar    1  UNL1        0.0342
     25 C          63.5761   84.1133    9.4709 C.3     1  UNL1        0.2525
     26 O          63.0920   85.0368    8.3927 O.3     1  UNL1       -0.4714
@<TRIPOS>BOND
     1    25    26    1
     2    26    19    1
     3    19    20   ar
     4    20    21   ar
     5    21    22   ar
     6    22    23   ar
     7    23    17    1
     8    17    18    1
     9    17     1    1
    10     1     2   am
    11     2     3    2
    12     2     5    1
    13     5     6   ar
    14     6     7   ar
    15     7     8   ar
    16     8    11    1
    17    11    12   ar
    18    12    13   ar
    19    13    14   ar
    20    14    15   ar
    21    15    16   ar
    22     8     9   ar
    23     9    10   ar
    24    23    24   ar
    25    24    19   ar
    26    10     5   ar
    27    16    11   ar
    28     1     4    1
@<TRIPOS>MOLECULE
*****
 26 28 0 0 0
SMALL
GASTEIGER

@<TRIPOS>ATOM
      1 N          64.0958   90.3378   14.3930 N.am    1  UNL1       -0.2987
      2 C          63.7614   90.8375   13.0188 C.2     1  UNL1        0.2460
      3 O          64.0368   92.2658   12.6524 O.2     1  UNL1       -0.2701
      4 H          63.9150   89.4004   14.6335 H       1  UNL1        0.1500
      5 C          63.1515   89.9089   12.0109 C.ar    1  UNL1        0.0534
      6 C          62.5496   90.4591   10.7519 C.ar    1  UNL1        0.0045
      7 C          61.9397   89.5305    9.7441 C.ar    1  UNL1        0.0002
      8 C          61.9318   88.0517    9.9952 C.ar    1  UNL1        0.0016
      9 C          62.5337   87.5015   11.2541 C.ar    1  UNL1        0.0002
     10 C          63.1436   88.4301   12.2620 C.ar    1  UNL1        0.0045
     11 C          61.3220   87.1231    8.9873 C.ar    1  UNL1        0.0226
     12 C          62.1473   86.0264    8.3822 C.ar    1  UNL1        0.0241
     13 C          61.5374   85.0978    7.3743 C.ar    1  UNL1        0.1222
     14 N          60.1023   85.2659    6.9716 N.ar    1  UNL1       -0.1464
     15 N          59.2770   86.3626    7.5767 N.ar    1  UNL1       -0.1464
     16 C          59.8869   87.2912    8.5846 C.ar    1  UNL1        0.1221
     17 C          64.7056   91.2664   15.4009 C.3     1  UNL1        0.0945
     18 C          63.9190   91.6849   16.6075 C.3     1  UNL1        0.0262
     19 C          68.2344   91.9823   13.7319 C.ar    1  UNL1        0.1385
     20 C          68.8952   92.7967   14.8043 C.ar    1  UNL1        0.0369
     21 C          68.1595   93.1010   16.0756 C.ar    1  UNL1        0.0028
     22 C          66.7630   92.5909   16.2745 C.ar    1  UNL1       -0.0025
     23 C          66.1022   91.7766   15.2020 C.ar    1  UNL1       -0.0015
     24 C          66.8379   91.4723   13.9308 C.ar    1  UNL1        0.0342
     25 C          68.3066   91.9117   11.1358 C.3     1  UNL1        0.2525
     26 O          68.9701   91.6781   12.4606 O.3     1  UNL1       -0.4714
@<TRIPOS>BOND
     1    25    26    1
     2    26    19    1
     3    19    20   ar
     4    20    21   ar
     5    21    22   ar
     6    22    23   ar
     7    23    17    1
     8    17    18    1
     9    17     1    1
    10     1     2   am
    11     2     3    2
    12     2     5    1
    13     5     6   ar
    14     6     7   ar
    15     7     8   ar
    16     8    11    1
    17    11    12   ar
    18    12    13   ar
    19    13    14   ar
    20    14    15   ar
    21    15    16   ar
    22     8     9   ar
    23     9    10   ar
    24    23    24   ar
    25    24    19   ar
    26    10     5   ar
    27    16    11   ar
    28     1     4    1
@<TRIPOS>MOLECULE
*****
 26 28 0 0 0
SMALL
GASTEIGER

@<TRIPOS>ATOM
      1 N          64.3063   87.4378   13.9506 N.am    1  UNL1       -0.2987
      2 C          63.9306   88.8160   14.4082 C.2     1  UNL1        0.2460
      3 O          63.0395   88.9930   15.6019 O.2     1  UNL1       -0.2701
      4 H          64.8911   87.3216   13.1672 H       1  UNL1        0.1500
      5 C          64.4459   90.0171   13.6722 C.ar    1  UNL1        0.0534
      6 C          63.8164   90.4285   12.3743 C.ar    1  UNL1        0.0045
      7 C          64.3317   91.6297   11.6383 C.ar    1  UNL1        0.0002
      8 C          65.4765   92.4195   12.2003 C.ar    1  UNL1        0.0016
      9 C          66.1060   92.0080   13.4981 C.ar    1  UNL1        0.0002
     10 C          65.5906   90.8069   14.2341 C.ar    1  UNL1        0.0045
     11 C          65.9918   93.6206   11.4643 C.ar    1  UNL1        0.0226
     12 C          66.4682   93.4853   10.0484 C.ar    1  UNL1        0.0241
     13 C          66.9835   94.6864    9.3124 C.ar    1  UNL1        0.1222
     14 N          67.0224   96.0229    9.9924 N.ar    1  UNL1       -0.1464
     15 N          66.5461   96.1582   11.4082 N.ar    1  UNL1       -0.1464
     16 C          66.0308   94.9571   12.1442 C.ar    1  UNL1        0.1221
     17 C          63.7910   86.2366   14.6866 C.3     1  UNL1        0.0945
     18 C          63.7336   86.2430   16.1854 C.3     1  UNL1        0.0262
     19 C          62.6267   82.5292   13.8806 C.ar    1  UNL1        0.1385
     20 C          62.4170   82.6140   12.3978 C.ar    1  UNL1        0.0369
     21 C          62.6653   83.9063   11.6779 C.ar    1  UNL1        0.0028
     22 C          63.1232   85.1138   12.4408 C.ar    1  UNL1       -0.0025
     23 C          63.3330   85.0290   13.9236 C.ar    1  UNL1       -0.0015
     24 C          63.0847   83.7367   14.6435 C.ar    1  UNL1        0.0342
     25 C          62.3995   79.9413   13.8449 C.3     1  UNL1        0.2525
     26 O          62.3784   81.2369   14.6006 O.3     1  UNL1       -0.4714
@<TRIPOS>BOND
     1    25    26    1
     2    26    19    1
     3    19    20   ar
     4    20    21   ar
     5    21    22   ar
     6    22    23   ar
     7    23    17    1
     8    17    18    1
     9    17     1    1
    10     1     2   am
    11     2     3    2
    12     2     5    1
    13     5     6   ar
    14     6     7   ar
    15     7     8   ar
    16     8    11    1
    17    11    12   ar
    18    12    13   ar
    19    13    14   ar
    20    14    15   ar
    21    15    16   ar
    22     8     9   ar
    23     9    10   ar
    24    23    24   ar
    25    24    19   ar
    26    10     5   ar
    27    16    11   ar
    28     1     4    1
@<TRIPOS>MOLECULE
*****
 26 28 0 0 0
SMALL
GASTEIGER

@<TRIPOS>ATOM
      1 N          65.8868   90.6896   13.8084 N.am    1  UNL1       -0.2987
      2 C          64.4518   90.2588   13.7373 C.2     1  UNL1        0.2460
      3 O          63.3601   91.2874   13.7155 O.2     1  UNL1       -0.2701
      4 H          66.6033   90.0145   13.8227 H       1  UNL1        0.1500
      5 C          64.1084   88.7995   13.6879 C.ar    1  UNL1        0.0534
      6 C          64.5085   87.8962   14.8167 C.ar    1  UNL1        0.0045
      7 C          64.1651   86.4369   14.7673 C.ar    1  UNL1        0.0002
      8 C          63.4215   85.8809   13.5892 C.ar    1  UNL1        0.0016
      9 C          63.0213   86.7841   12.4605 C.ar    1  UNL1        0.0002
     10 C          63.3648   88.2434   12.5099 C.ar    1  UNL1        0.0045
     11 C          63.0780   84.4215   13.5398 C.ar    1  UNL1        0.0226
     12 C          62.9181   83.7330   12.2167 C.ar    1  UNL1        0.0241
     13 C          62.5746   82.2737   12.1674 C.ar    1  UNL1        0.1222
     14 N          62.3911   81.5029   13.4411 N.ar    1  UNL1       -0.1464
     15 N          62.5510   82.1914   14.7641 N.ar    1  UNL1       -0.1464
     16 C          62.8945   83.6507   14.8134 C.ar    1  UNL1        0.1221
     17 C          66.2303   92.1489   13.8578 C.3     1  UNL1        0.0945
     18 C          66.2709   92.8657   15.1748 C.3     1  UNL1        0.0262
     19 C          66.4290   95.0706   11.1793 C.ar    1  UNL1        0.1385
     20 C          67.1386   94.3765   10.0548 C.ar    1  UNL1        0.0369
     21 C          67.5454   92.9398   10.1979 C.ar    1  UNL1        0.0028
     22 C          67.2426   92.1973   11.4655 C.ar    1  UNL1       -0.0025
     23 C          66.5331   92.8914   12.5901 C.ar    1  UNL1       -0.0015
     24 C          66.1263   94.3281   12.4470 C.ar    1  UNL1        0.0342
     25 C          64.7169   96.8558   10.3846 C.3     1  UNL1        0.2525
     26 O          66.0222   96.5073   11.0362 O.3     1  UNL1       -0.4714
@<TRIPOS>BOND
     1    25    26    1
     2    26    19    1
     3    19    20   ar
     4    20    21   ar
     5    21    22   ar
     6    22    23   ar
     7    23    17    1
     8    17    18    1
     9    17     1    1
    10     1     2   am
    11     2     3    2
    12     2     5    1
    13     5     6   ar
    14     6     7   ar
    15     7     8   ar
    16     8    11    1
    17    11    12   ar
    18    12    13   ar
    19    13    14   ar
    20    14    15   ar
    21    15    16   ar
    22     8     9   ar
    23     9    10   ar
    24    23    24   ar
    25    24    19   ar
    26    10     5   ar
    27    16    11   ar
    28     1     4    1
@<TRIPOS>MOLECULE
*****
 26 28 0 0 0
SMALL
GASTEIGER

@<TRIPOS>ATOM
      1 N          65.8784   90.8430   13.7725 N.am    1  UNL1       -0.2987
      2 C          64.4936   90.3439   14.0606 C.2     1  UNL1        0.2460
      3 O          63.4303   91.3008   14.5121 O.2     1  UNL1       -0.2701
      4 H          66.5763   90.2149   13.4762 H       1  UNL1        0.1500
      5 C          64.1719   88.8879   13.8971 C.ar    1  UNL1        0.0534
      6 C          63.4427   88.4135   12.6751 C.ar    1  UNL1        0.0045
      7 C          63.1211   86.9576   12.5116 C.ar    1  UNL1        0.0002
      8 C          63.5287   85.9760   13.5702 C.ar    1  UNL1        0.0016
      9 C          64.2578   86.4504   14.7921 C.ar    1  UNL1        0.0002
     10 C          64.5795   87.9064   14.9556 C.ar    1  UNL1        0.0045
     11 C          63.2070   84.5200   13.4067 C.ar    1  UNL1        0.0226
     12 C          63.0993   83.9253   12.0338 C.ar    1  UNL1        0.0241
     13 C          62.7776   82.4693   11.8703 C.ar    1  UNL1        0.1222
     14 N          62.5637   81.6081   13.0798 N.ar    1  UNL1       -0.1464
     15 N          62.6715   82.2029   14.4526 N.ar    1  UNL1       -0.1464
     16 C          62.9931   83.6588   14.6160 C.ar    1  UNL1        0.1221
     17 C          66.2001   92.2989   13.9360 C.3     1  UNL1        0.0945
     18 C          66.3155   92.8920   15.3089 C.3     1  UNL1        0.0262
     19 C          67.1018   93.4163   10.2362 C.ar    1  UNL1        0.1385
     20 C          66.8187   94.8875   10.3075 C.ar    1  UNL1        0.0369
     21 C          66.3295   95.4960   11.5883 C.ar    1  UNL1        0.0028
     22 C          66.1232   94.6332   12.7978 C.ar    1  UNL1       -0.0025
     23 C          66.4063   93.1619   12.7265 C.ar    1  UNL1       -0.0015
     24 C          66.8956   92.5534   11.4457 C.ar    1  UNL1        0.0342
     25 C          68.9847   92.2595    8.8699 C.3     1  UNL1        0.2525
     26 O          67.5911   92.8078    8.9554 O.3     1  UNL1       -0.4714
@<TRIPOS>BOND
     1    25    26    1
     2    26    19    1
     3    19    20   ar
     4    20    21   ar
     5    21    22   ar
     6    22    23   ar
     7    23    17    1
     8    17    18    1
     9    17     1    1
    10     1     2   am
    11     2     3    2
    12     2     5    1
    13     5     6   ar
    14     6     7   ar
    15     7     8   ar
    16     8    11    1
    17    11    12   ar
    18    12    13   ar
    19    13    14   ar
    20    14    15   ar
    21    15    16   ar
    22     8     9   ar
    23     9    10   ar
    24    23    24   ar
    25    24    19   ar
    26    10     5   ar
    27    16    11   ar
    28     1     4    1
@<TRIPOS>MOLECULE
*****
 26 28 0 0 0
SMALL
GASTEIGER

@<TRIPOS>ATOM
      1 N          61.3710   89.6374   12.3204 N.am    1  UNL1       -0.2987
      2 C          62.3962   90.3744   11.5106 C.2     1  UNL1        0.2460
      3 O          62.1812   90.5853   10.0411 O.2     1  UNL1       -0.2701
      4 H          61.5121   89.4990   13.2848 H       1  UNL1        0.1500
      5 C          63.6364   90.9006   12.1702 C.ar    1  UNL1        0.0534
      6 C          64.4742   91.9335   11.4766 C.ar    1  UNL1        0.0045
      7 C          65.7144   92.4597   12.1362 C.ar    1  UNL1        0.0002
      8 C          66.1168   91.9528   13.4895 C.ar    1  UNL1        0.0016
      9 C          65.2789   90.9199   14.1831 C.ar    1  UNL1        0.0002
     10 C          64.0388   90.3938   13.5234 C.ar    1  UNL1        0.0045
     11 C          67.3569   92.4789   14.1492 C.ar    1  UNL1        0.0226
     12 C          67.2467   93.4444   15.2919 C.ar    1  UNL1        0.0241
     13 C          68.4868   93.9705   15.9516 C.ar    1  UNL1        0.1222
     14 N          69.8373   93.5312   15.4685 N.ar    1  UNL1       -0.1464
     15 N          69.9475   92.5658   14.3258 N.ar    1  UNL1       -0.1464
     16 C          68.7074   92.0397   13.6661 C.ar    1  UNL1        0.1221
     17 C          60.1309   89.1113   11.6607 C.3     1  UNL1        0.0945
     18 C          58.7805   89.4841   12.1967 C.3     1  UNL1        0.0262
     19 C          59.8577   87.7801    7.9320 C.ar    1  UNL1        0.1385
     20 C          60.4616   86.4144    8.0736 C.ar    1  UNL1        0.0369
     21 C          60.9553   85.9476    9.4109 C.ar    1  UNL1        0.0028
     22 C          60.8451   86.8466   10.6066 C.ar    1  UNL1       -0.0025
     23 C          60.2411   88.2123   10.4650 C.ar    1  UNL1       -0.0015
     24 C          59.7474   88.6790    9.1277 C.ar    1  UNL1        0.0342
     25 C          59.1640   89.7112    6.3383 C.3     1  UNL1        0.2525
     26 O          59.3640   88.2468    6.5947 O.3     1  UNL1       -0.4714
@<TRIPOS>BOND
     1    25    26    1
     2    26    19    1
     3    19    20   ar
     4    20    21   ar
     5    21    22   ar
     6    22    23   ar
     7    23    17    1
     8    17    18    1
     9    17     1    1
    10     1     2   am
    11     2     3    2
    12     2     5    1
    13     5     6   ar
    14     6     7   ar
    15     7     8   ar
    16     8    11    1
    17    11    12   ar
    18    12    13   ar
    19    13    14   ar
    20    14    15   ar
    21    15    16   ar
    22     8     9   ar
    23     9    10   ar
    24    23    24   ar
    25    24    19   ar
    26    10     5   ar
    27    16    11   ar
    28     1     4    1
@<TRIPOS>MOLECULE
*****
 26 28 0 0 0
SMALL
GASTEIGER

@<TRIPOS>ATOM
      1 N          63.8819   88.3053   13.8069 N.am    1  UNL1       -0.2987
      2 C          63.7939   87.0730   14.6575 C.2     1  UNL1        0.2460
      3 O          63.8835   87.1843   16.1507 O.2     1  UNL1       -0.2701
      4 H          63.8230   88.2322   12.8269 H       1  UNL1        0.1500
      5 C          63.6162   85.7293   14.0150 C.ar    1  UNL1        0.0534
      6 C          63.1232   85.6331   12.6015 C.ar    1  UNL1        0.0045
      7 C          62.9455   84.2894   11.9590 C.ar    1  UNL1        0.0002
      8 C          63.2608   83.0418   12.7299 C.ar    1  UNL1        0.0016
      9 C          63.7537   83.1380   14.1433 C.ar    1  UNL1        0.0002
     10 C          63.9314   84.4817   14.7858 C.ar    1  UNL1        0.0045
     11 C          63.0831   81.6981   12.0873 C.ar    1  UNL1        0.0226
     12 C          63.2935   81.5392   10.6107 C.ar    1  UNL1        0.0241
     13 C          63.1158   80.1955    9.9681 C.ar    1  UNL1        0.1222
     14 N          62.7277   79.0107   10.8023 N.ar    1  UNL1       -0.1464
     15 N          62.5173   79.1697   12.2789 N.ar    1  UNL1       -0.1464
     16 C          62.6950   80.5134   12.9214 C.ar    1  UNL1        0.1221
     17 C          64.0596   89.6490   14.4495 C.3     1  UNL1        0.0945
     18 C          63.4768   89.9148   15.8058 C.3     1  UNL1        0.0262
     19 C          66.8224   92.3797   13.6365 C.ar    1  UNL1        0.1385
     20 C          66.3412   92.8830   12.3080 C.ar    1  UNL1        0.0369
     21 C          65.0995   92.3083   11.6932 C.ar    1  UNL1        0.0028
     22 C          64.3389   91.2304   12.4070 C.ar    1  UNL1       -0.0025
     23 C          64.8201   90.7270   13.7356 C.ar    1  UNL1       -0.0015
     24 C          66.0618   91.3017   14.3503 C.ar    1  UNL1        0.0342
     25 C          68.0526   93.4070   15.6813 C.3     1  UNL1        0.2525
     26 O          68.0641   92.9543   14.2513 O.3     1  UNL1       -0.4714
@<TRIPOS>BOND
     1    25    26    1
     2    26    19    1
     3    19    20   ar
     4    20    21   ar
     5    21    22   ar
     6    22    23   ar
     7    23    17    1
     8    17    18    1
     9    17     1    1
    10     1     2   am
    11     2     3    2
    12     2     5    1
    13     5     6   ar
    14     6     7   ar
    15     7     8   ar
    16     8    11    1
    17    11    12   ar
    18    12    13   ar
    19    13    14   ar
    20    14    15   ar
    21    15    16   ar
    22     8     9   ar
    23     9    10   ar
    24    23    24   ar
    25    24    19   ar
    26    10     5   ar
    27    16    11   ar
    28     1     4    1
@<TRIPOS>MOLECULE
*****
 26 28 0 0 0
SMALL
GASTEIGER

@<TRIPOS>ATOM
      1 N          62.5211   88.4427   10.6794 N.am    1  UNL1       -0.2987
      2 C          62.7504   89.4608   11.7568 C.2     1  UNL1        0.2460
      3 O          62.1761   89.2463   13.1258 O.2     1  UNL1       -0.2701
      4 H          62.8980   88.5834    9.7808 H       1  UNL1        0.1500
      5 C          63.5540   90.6933   11.4652 C.ar    1  UNL1        0.0534
      6 C          63.4507   91.3561   10.1235 C.ar    1  UNL1        0.0045
      7 C          64.2543   92.5886    9.8319 C.ar    1  UNL1        0.0002
      8 C          65.1613   93.1584   10.8821 C.ar    1  UNL1        0.0016
      9 C          65.2647   92.4956   12.2237 C.ar    1  UNL1        0.0002
     10 C          64.4610   91.2631   12.5153 C.ar    1  UNL1        0.0045
     11 C          65.9650   94.3909   10.5905 C.ar    1  UNL1        0.0226
     12 C          65.7773   95.6234   11.4248 C.ar    1  UNL1        0.0241
     13 C          66.5809   96.8559   11.1332 C.ar    1  UNL1        0.1222
     14 N          67.5723   96.8560   10.0074 N.ar    1  UNL1       -0.1464
     15 N          67.7599   95.6236    9.1733 N.ar    1  UNL1       -0.1464
     16 C          66.9563   94.3910    9.4648 C.ar    1  UNL1        0.1221
     17 C          61.7174   87.2101   10.9709 C.3     1  UNL1        0.0945
     18 C          60.2372   87.3143   11.1898 C.3     1  UNL1        0.0262
     19 C          63.3296   83.8985   12.4488 C.ar    1  UNL1        0.1385
     20 C          63.7474   83.1999   11.1888 C.ar    1  UNL1        0.0369
     21 C          63.4886   83.8381    9.8563 C.ar    1  UNL1        0.0028
     22 C          62.8119   85.1748    9.7836 C.ar    1  UNL1       -0.0025
     23 C          62.3941   85.8733   11.0435 C.ar    1  UNL1       -0.0015
     24 C          62.6529   85.2352   12.3761 C.ar    1  UNL1        0.0342
     25 C          62.5358   83.3005   14.8492 C.3     1  UNL1        0.2525
     26 O          63.5884   83.2603   13.7813 O.3     1  UNL1       -0.4714
@<TRIPOS>BOND
     1    25    26    1
     2    26    19    1
     3    19    20   ar
     4    20    21   ar
     5    21    22   ar
     6    22    23   ar
     7    23    17    1
     8    17    18    1
     9    17     1    1
    10     1     2   am
    11     2     3    2
    12     2     5    1
    13     5     6   ar
    14     6     7   ar
    15     7     8   ar
    16     8    11    1
    17    11    12   ar
    18    12    13   ar
    19    13    14   ar
    20    14    15   ar
    21    15    16   ar
    22     8     9   ar
    23     9    10   ar
    24    23    24   ar
    25    24    19   ar
    26    10     5   ar
    27    16    11   ar
    28     1     4    1
