@<TRIPOS>MOLECULE
*****
 47 52 0 0 0
SMALL
GASTEIGER

@<TRIPOS>ATOM
      1 N          60.0935   88.5587    8.9869 N.am    1  UNL1       -0.2735
      2 C          59.3653   88.3231    7.6968 C.2     1  UNL1        0.2492
      3 O          58.7348   86.9897    7.4241 O.2     1  UNL1       -0.2699
      4 C          59.2675   89.4211    6.6794 C.ar    1  UNL1        0.0567
      5 C          57.9438   90.0686    6.3996 C.ar    1  UNL1        0.0063
      6 C          57.8461   91.1664    5.3822 C.ar    1  UNL1        0.0225
      7 C          59.0721   91.6169    4.6448 C.ar    1  UNL1        0.1202
      8 N          59.2826   92.6672    3.5947 N.ar    1  UNL1       -0.1946
      9 C          60.7365   92.6688    3.2256 C.ar    1  UNL1        0.2924
     10 O          61.4245   91.6195    4.0475 O.2     1  UNL1       -0.4237
     11 C          60.3959   90.9694    4.9246 C.ar    1  UNL1        0.1662
     12 C          60.4936   89.8715    5.9420 C.ar    1  UNL1        0.0437
     13 N          61.3880   93.5628    2.2124 N.pl3   1  UNL1       -0.2636
     14 C          62.8058   93.4650    1.7325 C.3     1  UNL1        0.0951
     15 C          63.0300   94.5533    0.7248 C.3     1  UNL1        0.0233
     16 C          61.7509   95.3235    0.5819 C.3     1  UNL1        0.0233
     17 C          60.7360   94.7113    1.5014 C.3     1  UNL1        0.0951
     18 C          60.7240   89.8921    9.2596 C.3     1  UNL1        0.1245
     19 C          60.8763   90.3750   10.6716 C.3     1  UNL1        0.1484
     20 O          59.9109   90.8110   11.7336 O.3     1  UNL1       -0.3810
     21 H          60.4003   91.0575   12.5340 H       1  UNL1        0.2105
     22 C          62.2421   90.4954   11.2798 C.3     1  UNL1        0.1075
     23 O          63.5140   88.1885   12.4833 O.2     1  UNL1       -0.2264
     24 C          63.1951   88.7495   12.9513 C.2     1  UNL1        0.4020
     25 N          62.4780   90.0408   12.6897 N.am    1  UNL1       -0.2695
     26 H          62.1622   90.5898   13.4434 H       1  UNL1        0.1528
     27 O          63.4310   88.2948   14.3611 O.3     1  UNL1       -0.4291
     28 C          64.4909   87.2742   14.6526 C.3     1  UNL1        0.2447
     29 C          64.1069   85.8483   14.9157 C.ar    1  UNL1        0.0714
     30 C          63.0391   85.3828   15.8609 C.ar    1  UNL1        0.1053
     31 N          62.9954   83.8844   15.8093 N.ar    1  UNL1       -0.2350
     32 C          64.0362   83.4237   14.8322 C.ar    1  UNL1        0.1343
     33 S          64.7231   84.6375   14.2800 S.2     1  UNL1       -0.0652
     34 C          63.3720   91.0704   10.4783 C.3     1  UNL1        0.0485
     35 C          64.3912   91.9487   11.1415 C.ar    1  UNL1       -0.0204
     36 C          65.0606   93.0415   10.3620 C.ar    1  UNL1       -0.0042
     37 C          66.0798   93.9198   11.0253 C.ar    1  UNL1       -0.0003
     38 C          66.4297   93.7052   12.4680 C.ar    1  UNL1       -0.0000
     39 C          65.7603   92.6123   13.2475 C.ar    1  UNL1       -0.0003
     40 C          64.7411   91.7341   12.5842 C.ar    1  UNL1       -0.0042
     41 C          60.1912   87.4607   10.0043 C.3     1  UNL1        0.0937
     42 C          61.2777   86.4323    9.8958 C.3     1  UNL1        0.0199
     43 C          61.6631   85.6189   11.0957 C.3     1  UNL1        0.0017
     44 C          62.7495   84.5904   10.9873 C.3     1  UNL1        0.0001
     45 C          63.4508   84.3754    9.6788 C.3     1  UNL1        0.0000
     46 C          63.0655   85.1887    8.4788 C.3     1  UNL1        0.0001
     47 C          61.9789   86.2172    8.5873 C.3     1  UNL1        0.0017
@<TRIPOS>BOND
     1    23    24    2
     2    24    25   am
     3    25    22    1
     4    22    34    1
     5    34    35    1
     6    35    36   ar
     7    36    37   ar
     8    37    38   ar
     9    38    39   ar
    10    39    40   ar
    11    22    19    1
    12    19    20    1
    13    19    18    1
    14    18     1    1
    15     1    41    1
    16    41    42    1
    17    42    43    1
    18    43    44    1
    19    44    45    1
    20    45    46    1
    21    46    47    1
    22     1     2   am
    23     2     3    2
    24     2     4    1
    25     4     5   ar
    26     5     6   ar
    27     6     7   ar
    28     7     8   ar
    29     8     9   ar
    30     9    13    1
    31    13    14    1
    32    14    15    1
    33    15    16    1
    34    16    17    1
    35     9    10   ar
    36    10    11   ar
    37    11    12   ar
    38    24    27    1
    39    27    28    1
    40    28    29    1
    41    29    30   ar
    42    30    31   ar
    43    31    32   ar
    44    32    33   ar
    45    40    35   ar
    46    47    42    1
    47    12     4   ar
    48    33    29   ar
    49    11     7   ar
    50    17    13    1
    51    25    26    1
    52    20    21    1
@<TRIPOS>MOLECULE
*****
 47 52 0 0 0
SMALL
GASTEIGER

@<TRIPOS>ATOM
      1 N          64.0232   90.2720   14.7083 N.am    1  UNL1       -0.2735
      2 C          63.8140   89.5544   16.0087 C.2     1  UNL1        0.2492
      3 O          64.0141   90.2799   17.3063 O.2     1  UNL1       -0.2699
      4 C          63.4048   88.1113   16.0117 C.ar    1  UNL1        0.0567
      5 C          62.7460   87.5210   17.2231 C.ar    1  UNL1        0.0063
      6 C          62.3368   86.0780   17.2260 C.ar    1  UNL1        0.0225
      7 C          62.5864   85.2252   16.0176 C.ar    1  UNL1        0.1202
      8 N          62.2951   83.7820   15.7300 N.ar    1  UNL1       -0.1946
      9 C          62.7739   83.4804   14.3409 C.ar    1  UNL1        0.2924
     10 O          63.3611   84.7371   13.7699 O.2     1  UNL1       -0.4237
     11 C          63.2452   85.8154   14.8062 C.ar    1  UNL1        0.1662
     12 C          63.6544   87.2585   14.8032 C.ar    1  UNL1        0.0437
     13 N          62.6818   82.1548   13.6448 N.pl3   1  UNL1       -0.2636
     14 C          62.1169   80.8920   14.2246 C.3     1  UNL1        0.0951
     15 C          62.2243   79.8161   13.1848 C.3     1  UNL1        0.0233
     16 C          62.8556   80.4141   11.9626 C.3     1  UNL1        0.0233
     17 C          63.1383   81.8596   12.2469 C.3     1  UNL1        0.0951
     18 C          63.8231   89.5465   13.4107 C.3     1  UNL1        0.1245
     19 C          62.6046   89.8188   12.5793 C.3     1  UNL1        0.1484
     20 O          61.1300   89.7968   12.8532 O.3     1  UNL1       -0.3810
     21 H          60.6477   90.0358   12.0462 H       1  UNL1        0.2105
     22 C          62.7517   90.2093   11.1385 C.3     1  UNL1        0.1075
     23 O          64.4180   92.5569   11.4554 O.2     1  UNL1       -0.2264
     24 C          64.6684   91.9573   10.9936 C.2     1  UNL1        0.4020
     25 N          64.0909   90.6278   10.6078 N.am    1  UNL1       -0.2695
     26 H          64.5908   90.0298   10.0063 H       1  UNL1        0.1528
     27 O          66.0075   92.3758   10.4630 O.3     1  UNL1       -0.4291
     28 C          66.6054   93.6853   10.8844 C.3     1  UNL1        0.2447
     29 C          66.6166   94.8453    9.9334 C.ar    1  UNL1        0.0714
     30 C          67.7061   95.1735    8.9559 C.ar    1  UNL1        0.1053
     31 N          67.3032   96.4118    8.2114 N.ar    1  UNL1       -0.2350
     32 C          65.9647   96.8489    8.7287 C.ar    1  UNL1        0.1343
     33 S          65.5405   95.8807    9.7930 S.2     1  UNL1       -0.0652
     34 C          61.5597   90.1814   10.2284 C.3     1  UNL1        0.0485
     35 C          61.1802   88.9103    9.5283 C.ar    1  UNL1       -0.0204
     36 C          59.9783   88.8780    8.6315 C.ar    1  UNL1       -0.0042
     37 C          59.5988   87.6068    7.9314 C.ar    1  UNL1       -0.0003
     38 C          60.4213   86.3680    8.1280 C.ar    1  UNL1       -0.0000
     39 C          61.6233   86.4003    9.0247 C.ar    1  UNL1       -0.0003
     40 C          62.0027   87.6714    9.7249 C.ar    1  UNL1       -0.0042
     41 C          64.4324   91.7152   14.7053 C.3     1  UNL1        0.0937
     42 C          65.8753   92.0859   14.8799 C.3     1  UNL1        0.0199
     43 C          66.8730   91.7392   13.8148 C.3     1  UNL1        0.0017
     44 C          68.3159   92.1100   13.9894 C.3     1  UNL1        0.0001
     45 C          68.7612   92.8275   15.2291 C.3     1  UNL1        0.0000
     46 C          67.7635   93.1741   16.2943 C.3     1  UNL1        0.0001
     47 C          66.3206   92.8033   16.1196 C.3     1  UNL1        0.0017
@<TRIPOS>BOND
     1    23    24    2
     2    24    25   am
     3    25    22    1
     4    22    34    1
     5    34    35    1
     6    35    36   ar
     7    36    37   ar
     8    37    38   ar
     9    38    39   ar
    10    39    40   ar
    11    22    19    1
    12    19    20    1
    13    19    18    1
    14    18     1    1
    15     1    41    1
    16    41    42    1
    17    42    43    1
    18    43    44    1
    19    44    45    1
    20    45    46    1
    21    46    47    1
    22     1     2   am
    23     2     3    2
    24     2     4    1
    25     4     5   ar
    26     5     6   ar
    27     6     7   ar
    28     7     8   ar
    29     8     9   ar
    30     9    13    1
    31    13    14    1
    32    14    15    1
    33    15    16    1
    34    16    17    1
    35     9    10   ar
    36    10    11   ar
    37    11    12   ar
    38    24    27    1
    39    27    28    1
    40    28    29    1
    41    29    30   ar
    42    30    31   ar
    43    31    32   ar
    44    32    33   ar
    45    40    35   ar
    46    47    42    1
    47    12     4   ar
    48    33    29   ar
    49    11     7   ar
    50    17    13    1
    51    25    26    1
    52    20    21    1
@<TRIPOS>MOLECULE
*****
 47 52 0 0 0
SMALL
GASTEIGER

@<TRIPOS>ATOM
      1 N          60.0304   88.6014    8.8918 N.am    1  UNL1       -0.2735
      2 C          59.3034   88.3706    7.6003 C.2     1  UNL1        0.2492
      3 O          58.6648   87.0413    7.3262 O.2     1  UNL1       -0.2699
      4 C          59.2149   89.4692    6.5827 C.ar    1  UNL1        0.0567
      5 C          57.8932   90.1148    6.2890 C.ar    1  UNL1        0.0063
      6 C          57.8049   91.2134    5.2715 C.ar    1  UNL1        0.0225
      7 C          59.0381   91.6663    4.5477 C.ar    1  UNL1        0.1202
      8 N          59.2583   92.7177    3.5007 N.ar    1  UNL1       -0.1946
      9 C          60.7161   92.7219    3.1474 C.ar    1  UNL1        0.2924
     10 O          61.3968   91.6731    3.9760 O.2     1  UNL1       -0.4237
     11 C          60.3598   91.0207    4.8414 C.ar    1  UNL1        0.1662
     12 C          60.4482   89.9221    5.8589 C.ar    1  UNL1        0.0437
     13 N          61.3771   93.6177    2.1420 N.pl3   1  UNL1       -0.2636
     14 C          62.6794   93.3524    1.4466 C.3     1  UNL1        0.0951
     15 C          62.9590   94.5068    0.5303 C.3     1  UNL1        0.0233
     16 C          61.8296   95.4853    0.6596 C.3     1  UNL1        0.0233
     17 C          60.8518   94.9358    1.6558 C.3     1  UNL1        0.0951
     18 C          60.6690   89.9307    9.1659 C.3     1  UNL1        0.1245
     19 C          60.8747   90.3866   10.5801 C.3     1  UNL1        0.1484
     20 O          59.9547   90.8555   11.6681 O.3     1  UNL1       -0.3810
     21 H          60.4725   91.0669   12.4606 H       1  UNL1        0.2105
     22 C          62.2573   90.4312   11.1601 C.3     1  UNL1        0.1075
     23 O          64.7894   91.5681   10.3332 O.2     1  UNL1       -0.2264
     24 C          64.2915   92.0019   10.7797 C.2     1  UNL1        0.4020
     25 N          62.9381   91.7504   11.3754 N.am    1  UNL1       -0.2695
     26 H          62.4966   92.4510   11.9078 H       1  UNL1        0.1528
     27 O          64.9723   93.3211   10.9950 O.3     1  UNL1       -0.4291
     28 C          66.3654   93.3644   11.5495 C.3     1  UNL1        0.2447
     29 C          66.6074   93.0456   12.9952 C.ar    1  UNL1        0.0714
     30 C          66.6510   94.0359   14.1211 C.ar    1  UNL1        0.1053
     31 N          66.9188   93.2830   15.3905 N.ar    1  UNL1       -0.2350
     32 C          67.0408   91.8274   15.0491 C.ar    1  UNL1        0.1343
     33 S          66.8483   91.6807   13.5688 S.2     1  UNL1       -0.0652
     34 C          62.9591   89.1566   11.5247 C.3     1  UNL1        0.0485
     35 C          63.3262   88.8848   12.9535 C.ar    1  UNL1       -0.0204
     36 C          63.8678   87.5424   13.3464 C.ar    1  UNL1       -0.0042
     37 C          64.2349   87.2706   14.7751 C.ar    1  UNL1       -0.0003
     38 C          64.0604   88.3413   15.8110 C.ar    1  UNL1       -0.0000
     39 C          63.5187   89.6837   15.4182 C.ar    1  UNL1       -0.0003
     40 C          63.1517   89.9555   13.9894 C.ar    1  UNL1       -0.0042
     41 C          60.1188   87.5028    9.9094 C.3     1  UNL1        0.0937
     42 C          61.2226   86.4906    9.8262 C.3     1  UNL1        0.0199
     43 C          61.9200   86.2469    8.5207 C.3     1  UNL1        0.0017
     44 C          63.0238   85.2347    8.4376 C.3     1  UNL1        0.0001
     45 C          63.4303   84.4660    9.6599 C.3     1  UNL1        0.0000
     46 C          62.7329   84.7097   10.9654 C.3     1  UNL1        0.0001
     47 C          61.6290   85.7220   11.0485 C.3     1  UNL1        0.0017
@<TRIPOS>BOND
     1    23    24    2
     2    24    25   am
     3    25    22    1
     4    22    34    1
     5    34    35    1
     6    35    36   ar
     7    36    37   ar
     8    37    38   ar
     9    38    39   ar
    10    39    40   ar
    11    22    19    1
    12    19    20    1
    13    19    18    1
    14    18     1    1
    15     1    41    1
    16    41    42    1
    17    42    43    1
    18    43    44    1
    19    44    45    1
    20    45    46    1
    21    46    47    1
    22     1     2   am
    23     2     3    2
    24     2     4    1
    25     4     5   ar
    26     5     6   ar
    27     6     7   ar
    28     7     8   ar
    29     8     9   ar
    30     9    13    1
    31    13    14    1
    32    14    15    1
    33    15    16    1
    34    16    17    1
    35     9    10   ar
    36    10    11   ar
    37    11    12   ar
    38    24    27    1
    39    27    28    1
    40    28    29    1
    41    29    30   ar
    42    30    31   ar
    43    31    32   ar
    44    32    33   ar
    45    40    35   ar
    46    47    42    1
    47    12     4   ar
    48    33    29   ar
    49    11     7   ar
    50    17    13    1
    51    25    26    1
    52    20    21    1
@<TRIPOS>MOLECULE
*****
 47 52 0 0 0
SMALL
GASTEIGER

@<TRIPOS>ATOM
      1 N          60.0720   88.5761    8.8685 N.am    1  UNL1       -0.2735
      2 C          59.2955   88.3804    7.6002 C.2     1  UNL1        0.2492
      3 O          58.5870   87.0826    7.3473 O.2     1  UNL1       -0.2699
      4 C          59.2273   89.4824    6.5847 C.ar    1  UNL1        0.0567
      5 C          57.9176   90.1521    6.2915 C.ar    1  UNL1        0.0063
      6 C          57.8495   91.2540    5.2761 C.ar    1  UNL1        0.0225
      7 C          59.0912   91.6862    4.5540 C.ar    1  UNL1        0.1202
      8 N          59.3308   92.7356    3.5092 N.ar    1  UNL1       -0.1946
      9 C          60.7887   92.7145    3.1569 C.ar    1  UNL1        0.2924
     10 O          61.4500   91.6520    3.9838 O.2     1  UNL1       -0.4237
     11 C          60.4009   91.0165    4.8472 C.ar    1  UNL1        0.1662
     12 C          60.4690   89.9146    5.8626 C.ar    1  UNL1        0.0437
     13 N          61.4663   93.6002    2.1537 N.pl3   1  UNL1       -0.2636
     14 C          60.8018   94.6507    1.3140 C.3     1  UNL1        0.0951
     15 C          61.8522   95.2907    0.4555 C.3     1  UNL1        0.0233
     16 C          63.1658   94.6358    0.7645 C.3     1  UNL1        0.0233
     17 C          62.9272   93.5909    1.8141 C.3     1  UNL1        0.0951
     18 C          60.7804   89.8739    9.1214 C.3     1  UNL1        0.1245
     19 C          60.9259   90.3882   10.5230 C.3     1  UNL1        0.1484
     20 O          59.9788   91.0008   11.5118 O.3     1  UNL1       -0.3810
     21 H          60.4557   91.2080   12.3307 H       1  UNL1        0.2105
     22 C          62.2606   90.3378   11.2056 C.3     1  UNL1        0.1075
     23 O          64.8150   91.5501   10.5783 O.2     1  UNL1       -0.2264
     24 C          64.3126   91.9257   11.0703 C.2     1  UNL1        0.4020
     25 N          62.9472   91.6102   11.6053 N.am    1  UNL1       -0.2695
     26 H          62.5016   92.2383   12.2187 H       1  UNL1        0.1528
     27 O          64.9991   93.1981   11.4699 O.3     1  UNL1       -0.4291
     28 C          66.4339   93.4254   11.0962 C.3     1  UNL1        0.2447
     29 C          66.8070   94.5892   10.2263 C.ar    1  UNL1        0.0714
     30 C          66.6368   96.0388   10.5723 C.ar    1  UNL1        0.1053
     31 N          67.1404   96.8532    9.4177 N.ar    1  UNL1       -0.2350
     32 C          67.6219   95.9068    8.3581 C.ar    1  UNL1        0.1343
     33 S          67.4159   94.5076    8.8579 S.2     1  UNL1       -0.0652
     34 C          62.9088   89.0150   11.4886 C.3     1  UNL1        0.0485
     35 C          63.3269   88.6685   12.8869 C.ar    1  UNL1       -0.0204
     36 C          63.7571   87.2698   13.2162 C.ar    1  UNL1       -0.0042
     37 C          64.1752   86.9233   14.6145 C.ar    1  UNL1       -0.0003
     38 C          64.1631   87.9755   15.6834 C.ar    1  UNL1       -0.0000
     39 C          63.7329   89.3742   15.3541 C.ar    1  UNL1       -0.0003
     40 C          63.3148   89.7207   13.9558 C.ar    1  UNL1       -0.0042
     41 C          60.1401   87.4742    9.8839 C.3     1  UNL1        0.0937
     42 C          61.2242   86.4410    9.7980 C.3     1  UNL1        0.0199
     43 C          61.5884   85.6336   11.0085 C.3     1  UNL1        0.0017
     44 C          62.6725   84.6005   10.9225 C.3     1  UNL1        0.0001
     45 C          63.3923   84.3748    9.6260 C.3     1  UNL1        0.0000
     46 C          63.0281   85.1822    8.4155 C.3     1  UNL1        0.0001
     47 C          61.9440   86.2154    8.5015 C.3     1  UNL1        0.0017
@<TRIPOS>BOND
     1    23    24    2
     2    24    25   am
     3    25    22    1
     4    22    34    1
     5    34    35    1
     6    35    36   ar
     7    36    37   ar
     8    37    38   ar
     9    38    39   ar
    10    39    40   ar
    11    22    19    1
    12    19    20    1
    13    19    18    1
    14    18     1    1
    15     1    41    1
    16    41    42    1
    17    42    43    1
    18    43    44    1
    19    44    45    1
    20    45    46    1
    21    46    47    1
    22     1     2   am
    23     2     3    2
    24     2     4    1
    25     4     5   ar
    26     5     6   ar
    27     6     7   ar
    28     7     8   ar
    29     8     9   ar
    30     9    13    1
    31    13    14    1
    32    14    15    1
    33    15    16    1
    34    16    17    1
    35     9    10   ar
    36    10    11   ar
    37    11    12   ar
    38    24    27    1
    39    27    28    1
    40    28    29    1
    41    29    30   ar
    42    30    31   ar
    43    31    32   ar
    44    32    33   ar
    45    40    35   ar
    46    47    42    1
    47    12     4   ar
    48    33    29   ar
    49    11     7   ar
    50    17    13    1
    51    25    26    1
    52    20    21    1
@<TRIPOS>MOLECULE
*****
 47 52 0 0 0
SMALL
GASTEIGER

@<TRIPOS>ATOM
      1 N          64.5414   91.3445   12.8324 N.am    1  UNL1       -0.2735
      2 C          64.5625   91.0283   14.2985 C.2     1  UNL1        0.2492
      3 O          64.9986   92.0712   15.2845 O.2     1  UNL1       -0.2699
      4 C          64.1473   89.6692   14.7787 C.ar    1  UNL1        0.0567
      5 C          63.6097   89.4966   16.1683 C.ar    1  UNL1        0.0063
      6 C          63.1946   88.1376   16.6484 C.ar    1  UNL1        0.0225
      7 C          63.3172   86.9511   15.7389 C.ar    1  UNL1        0.1202
      8 N          62.9904   85.4999   15.9327 N.ar    1  UNL1       -0.1946
      9 C          63.3260   84.7757   14.6627 C.ar    1  UNL1        0.2924
     10 O          63.8603   85.7792   13.6842 O.2     1  UNL1       -0.4237
     11 C          63.8548   87.1236   14.3493 C.ar    1  UNL1        0.1662
     12 C          64.2699   88.4827   13.8692 C.ar    1  UNL1        0.0437
     13 N          63.1572   83.3059   14.4148 N.pl3   1  UNL1       -0.2636
     14 C          61.9162   82.5047   14.6757 C.3     1  UNL1        0.0951
     15 C          62.1917   81.0830   14.2846 C.3     1  UNL1        0.0233
     16 C          63.6029   81.0057   13.7820 C.3     1  UNL1        0.0233
     17 C          64.1995   82.3796   13.8625 C.3     1  UNL1        0.0951
     18 C          64.1053   90.3016   11.8464 C.3     1  UNL1        0.1245
     19 C          63.1403   90.6585   10.7548 C.3     1  UNL1        0.1484
     20 O          63.0192   91.8158    9.8082 O.3     1  UNL1       -0.3810
     21 H          62.2464   91.6863    9.2364 H       1  UNL1        0.2105
     22 C          61.9965   89.7420   10.4357 C.3     1  UNL1        0.1075
     23 O          59.7563   88.3952    9.1885 O.2     1  UNL1       -0.2264
     24 C          59.9672   89.1215    8.9366 C.2     1  UNL1        0.4020
     25 N          61.0403   90.0914    9.3340 N.am    1  UNL1       -0.2695
     26 H          61.1171   90.9572    8.8717 H       1  UNL1        0.1528
     27 O          59.0111   89.4708    7.8349 O.3     1  UNL1       -0.4291
     28 C          59.4541   89.3913    6.4041 C.3     1  UNL1        0.2447
     29 C          59.2950   90.5796    5.5025 C.ar    1  UNL1        0.0714
     30 C          58.0069   91.2801    5.1862 C.ar    1  UNL1        0.1053
     31 N          58.3119   92.4095    4.2472 N.ar    1  UNL1       -0.2350
     32 C          59.7885   92.4069    3.9833 C.ar    1  UNL1        0.1343
     33 S          60.3961   91.2760    4.7591 S.2     1  UNL1       -0.0652
     34 C          61.8088   88.4763   11.2184 C.3     1  UNL1        0.0485
     35 C          62.2033   87.1588   10.6196 C.ar    1  UNL1       -0.0204
     36 C          62.0401   85.8958   11.4121 C.ar    1  UNL1       -0.0042
     37 C          62.4346   84.5783   10.8133 C.ar    1  UNL1       -0.0003
     38 C          62.9924   84.5238    9.4220 C.ar    1  UNL1       -0.0000
     39 C          63.1556   85.7867    8.6294 C.ar    1  UNL1       -0.0003
     40 C          62.7611   87.1042    9.2282 C.ar    1  UNL1       -0.0042
     41 C          64.9565   92.7037   12.3522 C.3     1  UNL1        0.0937
     42 C          66.0688   92.8394   11.3550 C.3     1  UNL1        0.0199
     43 C          67.2683   91.9430   11.4427 C.3     1  UNL1        0.0017
     44 C          68.3805   92.0787   10.4456 C.3     1  UNL1        0.0001
     45 C          68.2934   93.1109    9.3606 C.3     1  UNL1        0.0000
     46 C          67.0939   94.0073    9.2729 C.3     1  UNL1        0.0001
     47 C          65.9816   93.8715   10.2701 C.3     1  UNL1        0.0017
@<TRIPOS>BOND
     1    23    24    2
     2    24    25   am
     3    25    22    1
     4    22    34    1
     5    34    35    1
     6    35    36   ar
     7    36    37   ar
     8    37    38   ar
     9    38    39   ar
    10    39    40   ar
    11    22    19    1
    12    19    20    1
    13    19    18    1
    14    18     1    1
    15     1    41    1
    16    41    42    1
    17    42    43    1
    18    43    44    1
    19    44    45    1
    20    45    46    1
    21    46    47    1
    22     1     2   am
    23     2     3    2
    24     2     4    1
    25     4     5   ar
    26     5     6   ar
    27     6     7   ar
    28     7     8   ar
    29     8     9   ar
    30     9    13    1
    31    13    14    1
    32    14    15    1
    33    15    16    1
    34    16    17    1
    35     9    10   ar
    36    10    11   ar
    37    11    12   ar
    38    24    27    1
    39    27    28    1
    40    28    29    1
    41    29    30   ar
    42    30    31   ar
    43    31    32   ar
    44    32    33   ar
    45    40    35   ar
    46    47    42    1
    47    12     4   ar
    48    33    29   ar
    49    11     7   ar
    50    17    13    1
    51    25    26    1
    52    20    21    1
@<TRIPOS>MOLECULE
*****
 47 52 0 0 0
SMALL
GASTEIGER

@<TRIPOS>ATOM
      1 N          63.2094   89.3848   12.7126 N.am    1  UNL1       -0.2735
      2 C          63.8849   88.6544   13.8352 C.2     1  UNL1        0.2492
      3 O          64.5626   89.4238   14.9301 O.2     1  UNL1       -0.2699
      4 C          63.8827   87.1546   13.8630 C.ar    1  UNL1        0.0567
      5 C          64.2848   86.4270   15.1115 C.ar    1  UNL1        0.0063
      6 C          64.2826   84.9273   15.1392 C.ar    1  UNL1        0.0225
      7 C          63.8783   84.1552   13.9184 C.ar    1  UNL1        0.1202
      8 N          63.7793   82.6828   13.6492 N.ar    1  UNL1       -0.1946
      9 C          63.3160   82.5005   12.2342 C.ar    1  UNL1        0.2924
     10 O          63.1286   83.8602   11.6290 O.2     1  UNL1       -0.4237
     11 C          63.4761   84.8828   12.6699 C.ar    1  UNL1        0.1662
     12 C          63.4783   86.3825   12.6422 C.ar    1  UNL1        0.0437
     13 N          63.0813   81.1888   11.5454 N.pl3   1  UNL1       -0.2636
     14 C          62.7521   79.8877   12.2153 C.3     1  UNL1        0.0951
     15 C          62.6019   78.8428   11.1495 C.3     1  UNL1        0.0233
     16 C          62.8382   79.4982    9.8212 C.3     1  UNL1        0.0233
     17 C          63.1345   80.9482   10.0659 C.3     1  UNL1        0.0951
     18 C          62.5317   88.6154   11.6177 C.3     1  UNL1        0.1245
     19 C          61.1877   89.0525   11.1149 C.3     1  UNL1        0.1484
     20 O          60.1195   89.9595   11.6500 O.3     1  UNL1       -0.3810
     21 H          59.3791   89.9915   11.0241 H       1  UNL1        0.2105
     22 C          60.6778   88.5447    9.7988 C.3     1  UNL1        0.1075
     23 O          58.9641   88.6133    7.4651 O.2     1  UNL1       -0.2264
     24 C          59.4908   89.2000    7.5826 C.2     1  UNL1        0.4020
     25 N          60.5096   89.4885    8.6451 N.am    1  UNL1       -0.2695
     26 H          61.0678   90.2973    8.5852 H       1  UNL1        0.1528
     27 O          59.3225   90.1437    6.4289 O.3     1  UNL1       -0.4291
     28 C          60.4976   90.4847    5.5612 C.3     1  UNL1        0.2447
     29 C          60.3467   91.4845    4.4532 C.ar    1  UNL1        0.0714
     30 C          59.0854   92.2073    4.0836 C.ar    1  UNL1        0.1053
     31 N          59.3897   93.1065    2.9222 N.ar    1  UNL1       -0.2350
     32 C          60.8392   92.9395    2.5741 C.ar    1  UNL1        0.1343
     33 S          61.4306   91.9370    3.5203 S.2     1  UNL1       -0.0652
     34 C          60.3363   87.0932    9.6364 C.3     1  UNL1        0.0485
     35 C          61.1402   86.2330    8.7071 C.ar    1  UNL1       -0.0204
     36 C          62.5773   85.9343    9.0162 C.ar    1  UNL1       -0.0042
     37 C          63.3813   85.0741    8.0869 C.ar    1  UNL1       -0.0003
     38 C          62.7482   84.5124    6.8485 C.ar    1  UNL1       -0.0000
     39 C          61.3111   84.8111    6.5394 C.ar    1  UNL1       -0.0003
     40 C          60.5071   85.6713    7.4687 C.ar    1  UNL1       -0.0042
     41 C          63.2116   90.8846   12.6848 C.3     1  UNL1        0.0937
     42 C          64.4406   91.6248   12.2473 C.3     1  UNL1        0.0199
     43 C          64.6154   92.0026   10.8062 C.3     1  UNL1        0.0017
     44 C          65.8444   92.7428   10.3687 C.3     1  UNL1        0.0001
     45 C          66.8988   93.1053   11.3723 C.3     1  UNL1        0.0000
     46 C          66.7240   92.7274   12.8133 C.3     1  UNL1        0.0001
     47 C          65.4949   91.9872   13.2508 C.3     1  UNL1        0.0017
@<TRIPOS>BOND
     1    23    24    2
     2    24    25   am
     3    25    22    1
     4    22    34    1
     5    34    35    1
     6    35    36   ar
     7    36    37   ar
     8    37    38   ar
     9    38    39   ar
    10    39    40   ar
    11    22    19    1
    12    19    20    1
    13    19    18    1
    14    18     1    1
    15     1    41    1
    16    41    42    1
    17    42    43    1
    18    43    44    1
    19    44    45    1
    20    45    46    1
    21    46    47    1
    22     1     2   am
    23     2     3    2
    24     2     4    1
    25     4     5   ar
    26     5     6   ar
    27     6     7   ar
    28     7     8   ar
    29     8     9   ar
    30     9    13    1
    31    13    14    1
    32    14    15    1
    33    15    16    1
    34    16    17    1
    35     9    10   ar
    36    10    11   ar
    37    11    12   ar
    38    24    27    1
    39    27    28    1
    40    28    29    1
    41    29    30   ar
    42    30    31   ar
    43    31    32   ar
    44    32    33   ar
    45    40    35   ar
    46    47    42    1
    47    12     4   ar
    48    33    29   ar
    49    11     7   ar
    50    17    13    1
    51    25    26    1
    52    20    21    1
@<TRIPOS>MOLECULE
*****
 47 52 0 0 0
SMALL
GASTEIGER

@<TRIPOS>ATOM
      1 N          63.9757   90.4619   13.1245 N.am    1  UNL1       -0.2735
      2 C          64.2177   90.0215   14.5378 C.2     1  UNL1        0.2492
      3 O          64.8216   90.9737   15.5271 O.2     1  UNL1       -0.2699
      4 C          63.8559   88.6289   14.9618 C.ar    1  UNL1        0.0567
      5 C          63.4576   88.3570   16.3822 C.ar    1  UNL1        0.0063
      6 C          63.0958   86.9644   16.8062 C.ar    1  UNL1        0.0225
      7 C          63.1322   85.8438   15.8098 C.ar    1  UNL1        0.1202
      8 N          62.8304   84.3797   15.9345 N.ar    1  UNL1       -0.1946
      9 C          63.0422   83.7468   14.5912 C.ar    1  UNL1        0.2924
     10 O          63.4748   84.8196   13.6363 O.2     1  UNL1       -0.4237
     11 C          63.5305   86.1156   14.3894 C.ar    1  UNL1        0.1662
     12 C          63.8923   87.5082   13.9655 C.ar    1  UNL1        0.0437
     13 N          62.8543   82.2957   14.2607 N.pl3   1  UNL1       -0.2636
     14 C          63.9290   81.3445   13.8244 C.3     1  UNL1        0.0951
     15 C          63.2976   80.0020   13.6025 C.3     1  UNL1        0.0233
     16 C          61.8328   80.1236   13.9017 C.3     1  UNL1        0.0233
     17 C          61.5589   81.5412   14.3085 C.3     1  UNL1        0.0951
     18 C          63.3718   89.5097   12.1352 C.3     1  UNL1        0.1245
     19 C          61.9953   89.7623   11.5952 C.3     1  UNL1        0.1484
     20 O          61.0248   90.9005   11.7068 O.3     1  UNL1       -0.3810
     21 H          60.2204   90.6897   11.2074 H       1  UNL1        0.2105
     22 C          61.3243   88.7293   10.7391 C.3     1  UNL1        0.1075
     23 O          59.1036   87.7553    9.1557 O.2     1  UNL1       -0.2264
     24 C          59.5333   88.3724    8.8912 C.2     1  UNL1        0.4020
     25 N          60.7166   89.1236    9.4256 N.am    1  UNL1       -0.2695
     26 H          61.0943   89.8753    8.9143 H       1  UNL1        0.1528
     27 O          58.9255   88.7666    7.5777 O.3     1  UNL1       -0.4291
     28 C          59.7928   89.3193    6.4858 C.3     1  UNL1        0.2447
     29 C          59.3056   90.4645    5.6483 C.ar    1  UNL1        0.0714
     30 C          57.8775   90.8943    5.4876 C.ar    1  UNL1        0.1053
     31 N          57.8503   92.0764    4.5646 N.ar    1  UNL1       -0.2350
     32 C          59.2616   92.3771    4.1548 C.ar    1  UNL1        0.1343
     33 S          60.1610   91.3810    4.8247 S.2     1  UNL1       -0.0652
     34 C          61.2611   87.3022   11.1966 C.3     1  UNL1        0.0485
     35 C          62.0337   86.2451   10.4647 C.ar    1  UNL1       -0.0204
     36 C          62.4313   86.4615    9.0347 C.ar    1  UNL1       -0.0042
     37 C          63.2039   85.4044    8.3029 C.ar    1  UNL1       -0.0003
     38 C          63.5790   84.1309    9.0011 C.ar    1  UNL1       -0.0000
     39 C          63.1815   83.9146   10.4311 C.ar    1  UNL1       -0.0003
     40 C          62.4088   84.9717   11.1630 C.ar    1  UNL1       -0.0042
     41 C          64.3375   91.8545   12.7004 C.3     1  UNL1        0.0937
     42 C          65.6281   92.1074   11.9790 C.3     1  UNL1        0.0199
     43 C          65.6144   92.7188   10.6093 C.3     1  UNL1        0.0017
     44 C          66.9049   92.9716    9.8879 C.3     1  UNL1        0.0001
     45 C          68.2093   92.6131   10.5362 C.3     1  UNL1        0.0000
     46 C          68.2230   92.0016   11.9058 C.3     1  UNL1        0.0001
     47 C          66.9324   91.7488   12.6272 C.3     1  UNL1        0.0017
@<TRIPOS>BOND
     1    23    24    2
     2    24    25   am
     3    25    22    1
     4    22    34    1
     5    34    35    1
     6    35    36   ar
     7    36    37   ar
     8    37    38   ar
     9    38    39   ar
    10    39    40   ar
    11    22    19    1
    12    19    20    1
    13    19    18    1
    14    18     1    1
    15     1    41    1
    16    41    42    1
    17    42    43    1
    18    43    44    1
    19    44    45    1
    20    45    46    1
    21    46    47    1
    22     1     2   am
    23     2     3    2
    24     2     4    1
    25     4     5   ar
    26     5     6   ar
    27     6     7   ar
    28     7     8   ar
    29     8     9   ar
    30     9    13    1
    31    13    14    1
    32    14    15    1
    33    15    16    1
    34    16    17    1
    35     9    10   ar
    36    10    11   ar
    37    11    12   ar
    38    24    27    1
    39    27    28    1
    40    28    29    1
    41    29    30   ar
    42    30    31   ar
    43    31    32   ar
    44    32    33   ar
    45    40    35   ar
    46    47    42    1
    47    12     4   ar
    48    33    29   ar
    49    11     7   ar
    50    17    13    1
    51    25    26    1
    52    20    21    1
@<TRIPOS>MOLECULE
*****
 47 52 0 0 0
SMALL
GASTEIGER

@<TRIPOS>ATOM
      1 N          61.8784   87.8424   10.7749 N.am    1  UNL1       -0.2735
      2 C          61.8709   89.2655   10.3009 C.2     1  UNL1        0.2492
      3 O          60.8260   89.7268    9.3286 O.2     1  UNL1       -0.2699
      4 C          62.9085   90.2275   10.7991 C.ar    1  UNL1        0.0567
      5 C          63.2577   91.4403    9.9885 C.ar    1  UNL1        0.0063
      6 C          64.2952   92.4022   10.4868 C.ar    1  UNL1        0.0225
      7 C          64.9836   92.1512   11.7957 C.ar    1  UNL1        0.1202
      8 N          66.0392   92.9164   12.5375 N.ar    1  UNL1       -0.1946
      9 C          66.3424   92.1765   13.8065 C.ar    1  UNL1        0.2924
     10 O          65.4742   90.9540   13.8490 O.2     1  UNL1       -0.4237
     11 C          64.6344   90.9384   12.6063 C.ar    1  UNL1        0.1662
     12 C          63.5969   89.9765   12.1080 C.ar    1  UNL1        0.0437
     13 N          67.3389   92.5869   14.8499 N.pl3   1  UNL1       -0.2636
     14 C          68.1570   91.6609   15.7004 C.3     1  UNL1        0.0951
     15 C          69.0159   92.4972   16.6021 C.3     1  UNL1        0.0233
     16 C          68.7287   93.9399   16.3088 C.3     1  UNL1        0.0233
     17 C          67.6922   93.9953   15.2259 C.3     1  UNL1        0.0951
     18 C          62.9234   87.3812   11.7471 C.3     1  UNL1        0.1245
     19 C          62.8764   85.9844   12.2920 C.3     1  UNL1        0.1484
     20 O          61.9953   84.7968   12.0405 O.3     1  UNL1       -0.3810
     21 H          62.2845   84.0562   12.5962 H       1  UNL1        0.2105
     22 C          63.8746   85.5477   13.3230 C.3     1  UNL1        0.1075
     23 O          62.6213   83.3748   14.7708 O.2     1  UNL1       -0.2264
     24 C          63.2837   83.2353   14.3498 C.2     1  UNL1        0.4020
     25 N          64.1789   84.0897   13.5020 N.am    1  UNL1       -0.2695
     26 H          64.9661   83.6937   13.0631 H       1  UNL1        0.1528
     27 O          63.5879   81.7775   14.5288 O.3     1  UNL1       -0.4291
     28 C          62.7132   80.7440   13.8832 C.3     1  UNL1        0.2447
     29 C          62.8286   80.4771   12.4116 C.ar    1  UNL1        0.0714
     30 C          62.6345   79.1509   11.7382 C.ar    1  UNL1        0.1053
     31 N          62.8442   79.3436   10.2655 N.ar    1  UNL1       -0.2350
     32 C          63.1679   80.7891   10.0287 C.ar    1  UNL1        0.1343
     33 S          63.1583   81.4896   11.3551 S.2     1  UNL1       -0.0652
     34 C          64.5684   86.5687   14.1750 C.3     1  UNL1        0.0485
     35 C          63.9390   87.0291   15.4563 C.ar    1  UNL1       -0.0204
     36 C          63.5600   86.0286   16.5077 C.ar    1  UNL1       -0.0042
     37 C          62.9305   86.4890   17.7890 C.ar    1  UNL1       -0.0003
     38 C          62.6800   87.9499   18.0190 C.ar    1  UNL1       -0.0000
     39 C          63.0589   88.9504   16.9677 C.ar    1  UNL1       -0.0003
     40 C          63.6884   88.4900   15.6864 C.ar    1  UNL1       -0.0042
     41 C          60.8408   86.8805   10.2766 C.3     1  UNL1        0.0937
     42 C          61.0548   86.1495    8.9844 C.3     1  UNL1        0.0199
     43 C          62.4024   85.5752    8.6618 C.3     1  UNL1        0.0017
     44 C          62.6163   84.8443    7.3696 C.3     1  UNL1        0.0001
     45 C          61.4826   84.6876    6.3999 C.3     1  UNL1        0.0000
     46 C          60.1350   85.2618    6.7225 C.3     1  UNL1        0.0001
     47 C          59.9211   85.9928    8.0148 C.3     1  UNL1        0.0017
@<TRIPOS>BOND
     1    23    24    2
     2    24    25   am
     3    25    22    1
     4    22    34    1
     5    34    35    1
     6    35    36   ar
     7    36    37   ar
     8    37    38   ar
     9    38    39   ar
    10    39    40   ar
    11    22    19    1
    12    19    20    1
    13    19    18    1
    14    18     1    1
    15     1    41    1
    16    41    42    1
    17    42    43    1
    18    43    44    1
    19    44    45    1
    20    45    46    1
    21    46    47    1
    22     1     2   am
    23     2     3    2
    24     2     4    1
    25     4     5   ar
    26     5     6   ar
    27     6     7   ar
    28     7     8   ar
    29     8     9   ar
    30     9    13    1
    31    13    14    1
    32    14    15    1
    33    15    16    1
    34    16    17    1
    35     9    10   ar
    36    10    11   ar
    37    11    12   ar
    38    24    27    1
    39    27    28    1
    40    28    29    1
    41    29    30   ar
    42    30    31   ar
    43    31    32   ar
    44    32    33   ar
    45    40    35   ar
    46    47    42    1
    47    12     4   ar
    48    33    29   ar
    49    11     7   ar
    50    17    13    1
    51    25    26    1
    52    20    21    1
@<TRIPOS>MOLECULE
*****
 47 52 0 0 0
SMALL
GASTEIGER

@<TRIPOS>ATOM
      1 N          63.6264   87.2732   12.8069 N.am    1  UNL1       -0.2735
      2 C          62.9315   86.1472   12.1004 C.2     1  UNL1        0.2492
      3 O          63.0531   84.7459   12.6217 O.2     1  UNL1       -0.2699
      4 C          62.1149   86.4224   10.8726 C.ar    1  UNL1        0.0567
      5 C          61.5612   85.2832   10.0692 C.ar    1  UNL1        0.0063
      6 C          60.7447   85.5584    8.8414 C.ar    1  UNL1        0.0225
      7 C          60.4819   86.9729    8.4170 C.ar    1  UNL1        0.1202
      8 N          59.7181   87.5487    7.2615 N.ar    1  UNL1       -0.1946
      9 C          59.7998   89.0438    7.3508 C.ar    1  UNL1        0.2924
     10 O          60.6141   89.3920    8.5614 O.2     1  UNL1       -0.4237
     11 C          61.0357   88.1122    9.2204 C.ar    1  UNL1        0.1662
     12 C          61.8522   87.8369   10.4482 C.ar    1  UNL1        0.0437
     13 N          59.1767   90.0194    6.3968 N.pl3   1  UNL1       -0.2636
     14 C          59.9144   90.9560    5.4864 C.3     1  UNL1        0.0951
     15 C          58.9000   91.7451    4.7128 C.3     1  UNL1        0.0233
     16 C          57.5356   91.2963    5.1451 C.3     1  UNL1        0.0233
     17 C          57.7067   90.2297    6.1860 C.3     1  UNL1        0.0951
     18 C          63.5048   88.6744   12.2857 C.3     1  UNL1        0.1245
     19 C          63.1239   89.7895   13.2139 C.3     1  UNL1        0.1484
     20 O          61.8578   90.1679   13.9237 O.3     1  UNL1       -0.3810
     21 H          62.0075   90.9718   14.4455 H       1  UNL1        0.2105
     22 C          64.1392   90.8241   13.5997 C.3     1  UNL1        0.1075
     23 O          65.3942   91.8245   11.1889 O.2     1  UNL1       -0.2264
     24 C          64.9436   92.3134   11.6287 C.2     1  UNL1        0.4020
     25 N          64.1624   92.1501   12.8987 N.am    1  UNL1       -0.2695
     26 H          63.6649   92.9131   13.2722 H       1  UNL1        0.1528
     27 O          64.9668   93.6393   10.9277 O.3     1  UNL1       -0.4291
     28 C          66.1710   94.5266   11.0410 C.3     1  UNL1        0.2447
     29 C          66.7383   95.1809    9.8162 C.ar    1  UNL1        0.0714
     30 C          67.4831   94.4903    8.7124 C.ar    1  UNL1        0.1053
     31 N          67.8656   95.5232    7.6942 N.ar    1  UNL1       -0.2350
     32 C          67.3572   96.8523    8.1688 C.ar    1  UNL1        0.1343
     33 S          66.6605   96.6407    9.4802 S.2     1  UNL1       -0.0652
     34 C          65.1312   90.5328   14.6864 C.3     1  UNL1        0.0485
     35 C          66.3212   91.4263   14.8749 C.ar    1  UNL1       -0.0204
     36 C          67.4954   91.3171   13.9480 C.ar    1  UNL1       -0.0042
     37 C          68.6854   92.2106   14.1365 C.ar    1  UNL1       -0.0003
     38 C          68.7011   93.2134   15.2519 C.ar    1  UNL1       -0.0000
     39 C          67.5269   93.3226   16.1788 C.ar    1  UNL1       -0.0003
     40 C          66.3369   92.4291   15.9903 C.ar    1  UNL1       -0.0042
     41 C          64.4430   86.9979   14.0348 C.3     1  UNL1        0.0937
     42 C          63.7697   86.8607   15.3681 C.3     1  UNL1        0.0199
     43 C          63.3268   85.5108   15.8493 C.3     1  UNL1        0.0017
     44 C          62.6534   85.3736   17.1826 C.3     1  UNL1        0.0001
     45 C          62.4230   86.5864   18.0348 C.3     1  UNL1        0.0000
     46 C          62.8659   87.9363   17.5536 C.3     1  UNL1        0.0001
     47 C          63.5392   88.0735   16.2202 C.3     1  UNL1        0.0017
@<TRIPOS>BOND
     1    23    24    2
     2    24    25   am
     3    25    22    1
     4    22    34    1
     5    34    35    1
     6    35    36   ar
     7    36    37   ar
     8    37    38   ar
     9    38    39   ar
    10    39    40   ar
    11    22    19    1
    12    19    20    1
    13    19    18    1
    14    18     1    1
    15     1    41    1
    16    41    42    1
    17    42    43    1
    18    43    44    1
    19    44    45    1
    20    45    46    1
    21    46    47    1
    22     1     2   am
    23     2     3    2
    24     2     4    1
    25     4     5   ar
    26     5     6   ar
    27     6     7   ar
    28     7     8   ar
    29     8     9   ar
    30     9    13    1
    31    13    14    1
    32    14    15    1
    33    15    16    1
    34    16    17    1
    35     9    10   ar
    36    10    11   ar
    37    11    12   ar
    38    24    27    1
    39    27    28    1
    40    28    29    1
    41    29    30   ar
    42    30    31   ar
    43    31    32   ar
    44    32    33   ar
    45    40    35   ar
    46    47    42    1
    47    12     4   ar
    48    33    29   ar
    49    11     7   ar
    50    17    13    1
    51    25    26    1
    52    20    21    1
