@<TRIPOS>MOLECULE
*****
 31 34 0 0 0
SMALL
GASTEIGER

@<TRIPOS>ATOM
      1 O          59.8583   88.7332    9.3986 O.3     1  UNL1       -0.4727
      2 C          63.1500   90.5161   11.8958 C.ar    1  UNL1        0.0481
      3 C          63.1864   90.6481   10.4021 C.ar    1  UNL1        0.0176
      4 C          62.0891   90.0538    9.5697 C.ar    1  UNL1        0.0382
      5 C          60.9556   89.3275   10.2310 C.ar    1  UNL1        0.1388
      6 C          60.9192   89.1954   11.7247 C.ar    1  UNL1        0.0382
      7 C          62.0164   89.7898   12.5571 C.ar    1  UNL1        0.0176
      8 C          67.9162   92.2601   16.5318 C.3     1  UNL1        0.0948
      9 C          67.5389   92.8934   15.2255 C.2     1  UNL1        0.2262
     10 O          68.2588   94.1210   14.7515 O.2     1  UNL1       -0.2749
     11 N          66.4416   92.2991   14.3931 N.am    1  UNL1       -0.2760
     12 C          65.7217   91.0714   14.8670 C.3     1  UNL1        0.1148
     13 C          64.6245   90.4771   14.0346 C.3     1  UNL1        0.1123
     14 N          64.2472   91.1104   12.7282 N.pl3   1  UNL1       -0.3041
     15 C          64.9671   92.3380   12.2543 C.3     1  UNL1        0.1123
     16 C          66.0643   92.9324   13.0867 C.3     1  UNL1        0.1148
     17 C          59.6795   87.2448    9.3454 C.3     1  UNL1        0.2374
     18 C          60.8799   86.3456    9.3225 C.3     1  UNL1        0.1909
     19 C          61.7179   86.0241    8.1206 C.3     1  UNL1        0.1783
     20 O          62.8089   85.0897    8.5527 O.3     1  UNL1       -0.3281
     21 C          62.6451   84.8337   10.0216 C.3     1  UNL1        0.2095
     22 C          63.8559   83.9662    9.8453 C.3     1  UNL1        0.0663
     23 O          61.4529   85.6098   10.4974 O.3     1  UNL1       -0.3269
     24 C          62.7345   84.3963   11.4537 C.ar    1  UNL1        0.0560
     25 C          62.5035   82.9589   11.8148 C.ar    1  UNL1        0.0049
     26 C          62.5929   82.5217   13.2469 C.ar    1  UNL1        0.0296
     27 C          62.9132   83.5219   14.3178 C.ar    1  UNL1        0.1424
     28 F          63.0025   83.0846   15.7499 F       1  UNL1       -0.2041
     29 C          63.1441   84.9593   13.9568 C.ar    1  UNL1        0.0591
     30 C          63.0548   85.3966   12.5247 C.ar    1  UNL1        0.1429
     31 F          63.2857   86.8340   12.1636 F       1  UNL1       -0.2043
@<TRIPOS>BOND
     1     8     9    1
     2     9    10    2
     3     9    11   am
     4    11    12    1
     5    12    13    1
     6    13    14    1
     7    14     2    1
     8     2     3   ar
     9     3     4   ar
    10     4     5   ar
    11     5     1    1
    12     1    17    1
    13    18    17    1
    14    18    19    1
    15    19    20    1
    16    20    21    1
    17    21    22    1
    18    21    24    1
    19    24    25   ar
    20    25    26   ar
    21    26    27   ar
    22    27    28    1
    23    27    29   ar
    24    29    30   ar
    25    30    31    1
    26    21    23    1
    27     5     6   ar
    28     6     7   ar
    29    14    15    1
    30    15    16    1
    31    16    11    1
    32     7     2   ar
    33    23    18    1
    34    30    24   ar
@<TRIPOS>MOLECULE
*****
 31 34 0 0 0
SMALL
GASTEIGER

@<TRIPOS>ATOM
      1 O          63.3298   87.8259   15.8318 O.3     1  UNL1       -0.4727
      2 C          64.8083   91.1836   13.2261 C.ar    1  UNL1        0.0481
      3 C          64.0933   90.0168   12.6120 C.ar    1  UNL1        0.0176
      4 C          63.6004   88.8976   13.4806 C.ar    1  UNL1        0.0382
      5 C          63.8226   88.9451   14.9632 C.ar    1  UNL1        0.1388
      6 C          64.5377   90.1119   15.5773 C.ar    1  UNL1        0.0382
      7 C          65.0306   91.2312   14.7088 C.ar    1  UNL1        0.0176
      8 C          66.6079   95.5865    8.2637 C.3     1  UNL1        0.0948
      9 C          66.7798   95.6606    9.7520 C.2     1  UNL1        0.2262
     10 O          67.4445   96.8539   10.3717 O.2     1  UNL1       -0.2749
     11 N          66.2869   94.5414   10.6205 N.am    1  UNL1       -0.2760
     12 C          65.6222   93.3481   10.0008 C.3     1  UNL1        0.1148
     13 C          65.1294   92.2288   10.8693 C.3     1  UNL1        0.1123
     14 N          65.3012   92.3029   12.3576 N.pl3   1  UNL1       -0.3041
     15 C          65.9659   93.4962   12.9773 C.3     1  UNL1        0.1123
     16 C          66.4588   94.6155   12.1087 C.3     1  UNL1        0.1148
     17 C          64.0877   86.5329   15.8909 C.3     1  UNL1        0.2374
     18 C          63.5390   85.3103   15.2169 C.3     1  UNL1        0.1909
     19 C          63.0267   84.0795   15.9043 C.3     1  UNL1        0.1783
     20 O          62.5773   83.1124   14.8493 O.3     1  UNL1       -0.3281
     21 C          62.8117   83.7456   13.5099 C.3     1  UNL1        0.2095
     22 C          62.2415   82.4637   12.9796 C.3     1  UNL1        0.0663
     23 O          63.4061   85.1041   13.7370 O.3     1  UNL1       -0.3269
     24 C          62.9270   84.1109   12.0596 C.ar    1  UNL1        0.0560
     25 C          62.0973   85.2278   11.4991 C.ar    1  UNL1        0.0049
     26 C          62.2127   85.5930   10.0489 C.ar    1  UNL1        0.0296
     27 C          63.1578   84.8413    9.1591 C.ar    1  UNL1        0.1424
     28 F          63.2731   85.2066    7.7088 F       1  UNL1       -0.2041
     29 C          63.9876   83.7245    9.7195 C.ar    1  UNL1        0.0591
     30 C          63.8722   83.3593   11.1698 C.ar    1  UNL1        0.1429
     31 F          64.7019   82.2424   11.7303 F       1  UNL1       -0.2043
@<TRIPOS>BOND
     1     8     9    1
     2     9    10    2
     3     9    11   am
     4    11    12    1
     5    12    13    1
     6    13    14    1
     7    14     2    1
     8     2     3   ar
     9     3     4   ar
    10     4     5   ar
    11     5     1    1
    12     1    17    1
    13    18    17    1
    14    18    19    1
    15    19    20    1
    16    20    21    1
    17    21    22    1
    18    21    24    1
    19    24    25   ar
    20    25    26   ar
    21    26    27   ar
    22    27    28    1
    23    27    29   ar
    24    29    30   ar
    25    30    31    1
    26    21    23    1
    27     5     6   ar
    28     6     7   ar
    29    14    15    1
    30    15    16    1
    31    16    11    1
    32     7     2   ar
    33    23    18    1
    34    30    24   ar
@<TRIPOS>MOLECULE
*****
 31 34 0 0 0
SMALL
GASTEIGER

@<TRIPOS>ATOM
      1 O          60.4546   88.4359    9.0987 O.3     1  UNL1       -0.4727
      2 C          63.4860   90.4183   11.7690 C.ar    1  UNL1        0.0481
      3 C          63.1111   91.0504   10.4615 C.ar    1  UNL1        0.0176
      4 C          62.1006   90.3897    9.5714 C.ar    1  UNL1        0.0382
      5 C          61.4651   89.0967    9.9888 C.ar    1  UNL1        0.1388
      6 C          61.8400   88.4645   11.2963 C.ar    1  UNL1        0.0382
      7 C          62.8505   89.1253   12.1864 C.ar    1  UNL1        0.0176
      8 C          67.9232   92.4155   16.6242 C.3     1  UNL1        0.0948
      9 C          67.5279   93.0615   15.3294 C.2     1  UNL1        0.2262
     10 O          68.1431   94.3682   14.9248 O.2     1  UNL1       -0.2749
     11 N          66.5174   92.4007   14.4393 N.am    1  UNL1       -0.2760
     12 C          65.9022   91.0939   14.8440 C.3     1  UNL1        0.1148
     13 C          64.8917   90.4331   13.9539 C.3     1  UNL1        0.1123
     14 N          64.4965   91.0791   12.6591 N.pl3   1  UNL1       -0.3041
     15 C          65.1117   92.3859   12.2545 C.3     1  UNL1        0.1123
     16 C          66.1222   93.0467   13.1446 C.3     1  UNL1        0.1148
     17 C          60.2166   86.9585    9.2017 C.3     1  UNL1        0.2374
     18 C          61.3780   86.0199    9.3442 C.3     1  UNL1        0.1909
     19 C          62.3093   85.5966    8.2472 C.3     1  UNL1        0.1783
     20 O          63.3189   84.6549    8.8337 O.3     1  UNL1       -0.3281
     21 C          63.0115   84.4962   10.2933 C.3     1  UNL1        0.2095
     22 C          64.1985   83.5793   10.2824 C.3     1  UNL1        0.0663
     23 O          61.8119   85.3397   10.6088 O.3     1  UNL1       -0.3269
     24 C          62.9522   84.1458   11.7506 C.ar    1  UNL1        0.0560
     25 C          63.1817   85.2057   12.7869 C.ar    1  UNL1        0.0049
     26 C          63.1224   84.8552   14.2441 C.ar    1  UNL1        0.0296
     27 C          62.8335   83.4448   14.6651 C.ar    1  UNL1        0.1424
     28 F          62.7742   83.0944   16.1224 F       1  UNL1       -0.2041
     29 C          62.6040   82.3848   13.6289 C.ar    1  UNL1        0.0591
     30 C          62.6633   82.7353   12.1716 C.ar    1  UNL1        0.1429
     31 F          62.4337   81.6754   11.1354 F       1  UNL1       -0.2043
@<TRIPOS>BOND
     1     8     9    1
     2     9    10    2
     3     9    11   am
     4    11    12    1
     5    12    13    1
     6    13    14    1
     7    14     2    1
     8     2     3   ar
     9     3     4   ar
    10     4     5   ar
    11     5     1    1
    12     1    17    1
    13    18    17    1
    14    18    19    1
    15    19    20    1
    16    20    21    1
    17    21    22    1
    18    21    24    1
    19    24    25   ar
    20    25    26   ar
    21    26    27   ar
    22    27    28    1
    23    27    29   ar
    24    29    30   ar
    25    30    31    1
    26    21    23    1
    27     5     6   ar
    28     6     7   ar
    29    14    15    1
    30    15    16    1
    31    16    11    1
    32     7     2   ar
    33    23    18    1
    34    30    24   ar
@<TRIPOS>MOLECULE
*****
 31 34 0 0 0
SMALL
GASTEIGER

@<TRIPOS>ATOM
      1 O          63.5152   87.7732   17.0054 O.3     1  UNL1       -0.4727
      2 C          63.1957   84.1253   14.3899 C.ar    1  UNL1        0.0481
      3 C          64.2367   85.1661   14.1016 C.ar    1  UNL1        0.0176
      4 C          64.3432   86.3820   14.9734 C.ar    1  UNL1        0.0382
      5 C          63.4087   86.5572   16.1336 C.ar    1  UNL1        0.1388
      6 C          62.3678   85.5165   16.4219 C.ar    1  UNL1        0.0382
      7 C          62.2613   84.3005   15.5501 C.ar    1  UNL1        0.0176
      8 C          62.9261   79.3883    9.4162 C.3     1  UNL1        0.0948
      9 C          62.7698   79.2615   10.9026 C.2     1  UNL1        0.2262
     10 O          62.5070   77.9186   11.5172 O.2     1  UNL1       -0.2749
     11 N          62.8763   80.4774   11.7744 N.am    1  UNL1       -0.2760
     12 C          63.1391   81.8202   11.1599 C.3     1  UNL1        0.1148
     13 C          63.2455   83.0362   12.0317 C.3     1  UNL1        0.1123
     14 N          63.0893   82.9093   13.5181 N.pl3   1  UNL1       -0.3041
     15 C          62.8265   81.5665   14.1327 C.3     1  UNL1        0.1123
     16 C          62.7200   80.3506   13.2608 C.3     1  UNL1        0.1148
     17 C          62.8200   89.0423   16.6106 C.3     1  UNL1        0.2374
     18 C          63.2284   89.7635   15.3603 C.3     1  UNL1        0.1909
     19 C          64.3026   90.8049   15.2540 C.3     1  UNL1        0.1783
     20 O          64.3723   91.2549   13.8248 O.3     1  UNL1       -0.3281
     21 C          63.3411   90.4915   13.0477 C.3     1  UNL1        0.2095
     22 C          63.8549   91.2884   11.8856 C.3     1  UNL1        0.0663
     23 O          62.6340   89.5697   13.9967 O.3     1  UNL1       -0.3269
     24 C          62.4172   89.8946   12.0277 C.ar    1  UNL1        0.0560
     25 C          61.3450   90.7371   11.4028 C.ar    1  UNL1        0.0049
     26 C          60.4213   90.1402   10.3828 C.ar    1  UNL1        0.0296
     27 C          60.5697   88.7008    9.9878 C.ar    1  UNL1        0.1424
     28 F          59.6459   88.1040    8.9679 F       1  UNL1       -0.2041
     29 C          61.6419   87.8583   10.6127 C.ar    1  UNL1        0.0591
     30 C          62.5656   88.4552   11.6327 C.ar    1  UNL1        0.1429
     31 F          63.6378   87.6127   12.2576 F       1  UNL1       -0.2043
@<TRIPOS>BOND
     1     8     9    1
     2     9    10    2
     3     9    11   am
     4    11    12    1
     5    12    13    1
     6    13    14    1
     7    14     2    1
     8     2     3   ar
     9     3     4   ar
    10     4     5   ar
    11     5     1    1
    12     1    17    1
    13    18    17    1
    14    18    19    1
    15    19    20    1
    16    20    21    1
    17    21    22    1
    18    21    24    1
    19    24    25   ar
    20    25    26   ar
    21    26    27   ar
    22    27    28    1
    23    27    29   ar
    24    29    30   ar
    25    30    31    1
    26    21    23    1
    27     5     6   ar
    28     6     7   ar
    29    14    15    1
    30    15    16    1
    31    16    11    1
    32     7     2   ar
    33    23    18    1
    34    30    24   ar
@<TRIPOS>MOLECULE
*****
 31 34 0 0 0
SMALL
GASTEIGER

@<TRIPOS>ATOM
      1 O          63.5172   87.8978   16.9985 O.3     1  UNL1       -0.4727
      2 C          63.2087   84.2434   14.3907 C.ar    1  UNL1        0.0481
      3 C          62.4056   84.3330   15.6544 C.ar    1  UNL1        0.0176
      4 C          62.5084   85.5511   16.5236 C.ar    1  UNL1        0.0382
      5 C          63.4143   86.6797   16.1292 C.ar    1  UNL1        0.1388
      6 C          64.2175   86.5901   14.8655 C.ar    1  UNL1        0.0382
      7 C          64.1146   85.3720   13.9963 C.ar    1  UNL1        0.0176
      8 C          63.0113   79.4856    9.4334 C.3     1  UNL1        0.0948
      9 C          62.7974   79.3710   10.9136 C.2     1  UNL1        0.2262
     10 O          62.4806   78.0382   11.5246 O.2     1  UNL1       -0.2749
     11 N          62.9002   80.5891   11.7829 N.am    1  UNL1       -0.2760
     12 C          63.2170   81.9219   11.1720 C.3     1  UNL1        0.1148
     13 C          63.3198   83.1400   12.0412 C.3     1  UNL1        0.1123
     14 N          63.1059   83.0253   13.5214 N.pl3   1  UNL1       -0.3041
     15 C          62.7891   81.6925   14.1324 C.3     1  UNL1        0.1123
     16 C          62.6863   80.4744   13.2631 C.3     1  UNL1        0.1148
     17 C          62.8915   89.1881   16.5586 C.3     1  UNL1        0.2374
     18 C          63.4200   89.9048   15.3515 C.3     1  UNL1        0.1909
     19 C          62.7725   89.9502   13.9992 C.3     1  UNL1        0.1783
     20 O          63.6412   90.7754   13.0968 O.3     1  UNL1       -0.3281
     21 C          64.8257   91.2400   13.8913 C.3     1  UNL1        0.2095
     22 C          65.2275   91.9041   12.6079 C.3     1  UNL1        0.0663
     23 O          64.6890   90.7019   15.2848 O.3     1  UNL1       -0.3269
     24 C          66.0942   91.8434   14.4176 C.ar    1  UNL1        0.0560
     25 C          67.3548   91.7636   13.6087 C.ar    1  UNL1        0.0049
     26 C          68.6232   92.3670   14.1350 C.ar    1  UNL1        0.0296
     27 C          68.6309   93.0502   15.4704 C.ar    1  UNL1        0.1424
     28 F          69.8993   93.6536   15.9967 F       1  UNL1       -0.2041
     29 C          67.3703   93.1301   16.2793 C.ar    1  UNL1        0.0591
     30 C          66.1019   92.5266   15.7530 C.ar    1  UNL1        0.1429
     31 F          64.8413   92.6065   16.5619 F       1  UNL1       -0.2043
@<TRIPOS>BOND
     1     8     9    1
     2     9    10    2
     3     9    11   am
     4    11    12    1
     5    12    13    1
     6    13    14    1
     7    14     2    1
     8     2     3   ar
     9     3     4   ar
    10     4     5   ar
    11     5     1    1
    12     1    17    1
    13    18    17    1
    14    18    19    1
    15    19    20    1
    16    20    21    1
    17    21    22    1
    18    21    24    1
    19    24    25   ar
    20    25    26   ar
    21    26    27   ar
    22    27    28    1
    23    27    29   ar
    24    29    30   ar
    25    30    31    1
    26    21    23    1
    27     5     6   ar
    28     6     7   ar
    29    14    15    1
    30    15    16    1
    31    16    11    1
    32     7     2   ar
    33    23    18    1
    34    30    24   ar
@<TRIPOS>MOLECULE
*****
 31 34 0 0 0
SMALL
GASTEIGER

@<TRIPOS>ATOM
      1 O          62.9664   85.6297   16.8805 O.3     1  UNL1       -0.4727
      2 C          64.2715   89.3608   14.7297 C.ar    1  UNL1        0.0481
      3 C          64.6308   88.0128   14.1785 C.ar    1  UNL1        0.0176
      4 C          64.1958   86.7691   14.8955 C.ar    1  UNL1        0.0382
      5 C          63.4015   86.8734   16.1636 C.ar    1  UNL1        0.1388
      6 C          63.0422   88.2214   16.7148 C.ar    1  UNL1        0.0382
      7 C          63.4772   89.4651   15.9978 C.ar    1  UNL1        0.0176
      8 C          65.5908   94.5683   10.4412 C.3     1  UNL1        0.0948
      9 C          66.0116   94.3355   11.8620 C.2     1  UNL1        0.2262
     10 O          66.8675   95.3464   12.5658 O.2     1  UNL1       -0.2749
     11 N          65.5766   93.0918   12.5789 N.am    1  UNL1       -0.2760
     12 C          64.7207   92.0809   11.8751 C.3     1  UNL1        0.1148
     13 C          64.2857   90.8372   12.5920 C.3     1  UNL1        0.1123
     14 N          64.7066   90.6044   14.0128 N.pl3   1  UNL1       -0.3041
     15 C          65.5624   91.6154   14.7166 C.3     1  UNL1        0.1123
     16 C          65.9975   92.8591   13.9997 C.3     1  UNL1        0.1148
     17 C          62.2535   84.5429   16.1318 C.3     1  UNL1        0.2374
     18 C          62.8916   83.9203   14.9255 C.3     1  UNL1        0.1909
     19 C          63.8064   82.7316   14.9266 C.3     1  UNL1        0.1783
     20 O          64.2071   82.4536   13.5080 O.3     1  UNL1       -0.3281
     21 C          63.5398   83.4706   12.6302 C.3     1  UNL1        0.2095
     22 C          64.2440   82.7451   11.5223 C.3     1  UNL1        0.0663
     23 O          62.7267   84.3771   13.5062 O.3     1  UNL1       -0.3269
     24 C          63.0197   84.3359   11.5208 C.ar    1  UNL1        0.0560
     25 C          62.0099   85.4056   11.8143 C.ar    1  UNL1        0.0049
     26 C          61.4899   86.2708   10.7048 C.ar    1  UNL1        0.0296
     27 C          61.9796   86.0664    9.3019 C.ar    1  UNL1        0.1424
     28 F          61.4596   86.9317    8.1925 F       1  UNL1       -0.2041
     29 C          62.9894   84.9967    9.0083 C.ar    1  UNL1        0.0591
     30 C          63.5094   84.1315   10.1178 C.ar    1  UNL1        0.1429
     31 F          64.5192   83.0619    9.8243 F       1  UNL1       -0.2043
@<TRIPOS>BOND
     1     8     9    1
     2     9    10    2
     3     9    11   am
     4    11    12    1
     5    12    13    1
     6    13    14    1
     7    14     2    1
     8     2     3   ar
     9     3     4   ar
    10     4     5   ar
    11     5     1    1
    12     1    17    1
    13    18    17    1
    14    18    19    1
    15    19    20    1
    16    20    21    1
    17    21    22    1
    18    21    24    1
    19    24    25   ar
    20    25    26   ar
    21    26    27   ar
    22    27    28    1
    23    27    29   ar
    24    29    30   ar
    25    30    31    1
    26    21    23    1
    27     5     6   ar
    28     6     7   ar
    29    14    15    1
    30    15    16    1
    31    16    11    1
    32     7     2   ar
    33    23    18    1
    34    30    24   ar
@<TRIPOS>MOLECULE
*****
 31 34 0 0 0
SMALL
GASTEIGER

@<TRIPOS>ATOM
      1 O          62.4238   90.1498   10.1315 O.3     1  UNL1       -0.4727
      2 C          62.5322   85.8570   11.4770 C.ar    1  UNL1        0.0481
      3 C          63.0038   86.9436   12.3973 C.ar    1  UNL1        0.0176
      4 C          62.9677   88.3745   11.9487 C.ar    1  UNL1        0.0382
      5 C          62.4599   88.7189   10.5800 C.ar    1  UNL1        0.1388
      6 C          61.9882   87.6323    9.6598 C.ar    1  UNL1        0.0382
      7 C          62.0243   86.2014   10.1083 C.ar    1  UNL1        0.0176
      8 C          62.6991   79.0295   12.2558 C.3     1  UNL1        0.0948
      9 C          62.6766   80.1334   13.2711 C.2     1  UNL1        0.2262
     10 O          62.6902   79.8063   14.7349 O.2     1  UNL1       -0.2749
     11 N          62.6405   81.5643   12.8226 N.am    1  UNL1       -0.2760
     12 C          62.6269   81.8913   11.3588 C.3     1  UNL1        0.1148
     13 C          62.5908   83.3222   10.9103 C.3     1  UNL1        0.1123
     14 N          62.5683   84.4261   11.9256 N.pl3   1  UNL1       -0.3041
     15 C          62.5819   84.0991   13.3894 C.3     1  UNL1        0.1123
     16 C          62.6180   82.6682   13.8379 C.3     1  UNL1        0.1148
     17 C          62.4602   91.2547   11.1453 C.3     1  UNL1        0.2374
     18 C          63.7676   91.6782   11.7464 C.3     1  UNL1        0.1909
     19 C          64.3294   91.2087   13.0556 C.3     1  UNL1        0.1783
     20 O          65.6518   91.8860   13.2622 O.3     1  UNL1       -0.3281
     21 C          65.9073   92.7741   12.0807 C.3     1  UNL1        0.2095
     22 C          67.1807   93.1024   12.8019 C.3     1  UNL1        0.0663
     23 O          64.7429   92.6457   11.1438 O.3     1  UNL1       -0.3269
     24 C          66.4290   93.7309   11.0498 C.ar    1  UNL1        0.0560
     25 C          66.1066   95.1922   11.1516 C.ar    1  UNL1        0.0049
     26 C          66.6283   96.1489   10.1208 C.ar    1  UNL1        0.0296
     27 C          67.4725   95.6442    8.9882 C.ar    1  UNL1        0.1424
     28 F          67.9942   96.6009    7.9575 F       1  UNL1       -0.2041
     29 C          67.7949   94.1828    8.8865 C.ar    1  UNL1        0.0591
     30 C          67.2732   93.2261    9.9173 C.ar    1  UNL1        0.1429
     31 F          67.5956   91.7647    9.8156 F       1  UNL1       -0.2043
@<TRIPOS>BOND
     1     8     9    1
     2     9    10    2
     3     9    11   am
     4    11    12    1
     5    12    13    1
     6    13    14    1
     7    14     2    1
     8     2     3   ar
     9     3     4   ar
    10     4     5   ar
    11     5     1    1
    12     1    17    1
    13    18    17    1
    14    18    19    1
    15    19    20    1
    16    20    21    1
    17    21    22    1
    18    21    24    1
    19    24    25   ar
    20    25    26   ar
    21    26    27   ar
    22    27    28    1
    23    27    29   ar
    24    29    30   ar
    25    30    31    1
    26    21    23    1
    27     5     6   ar
    28     6     7   ar
    29    14    15    1
    30    15    16    1
    31    16    11    1
    32     7     2   ar
    33    23    18    1
    34    30    24   ar
@<TRIPOS>MOLECULE
*****
 31 34 0 0 0
SMALL
GASTEIGER

@<TRIPOS>ATOM
      1 O          64.1073   88.4635   15.5603 O.3     1  UNL1       -0.4727
      2 C          63.5594   84.4991   13.5029 C.ar    1  UNL1        0.0481
      3 C          63.3837   85.7743   12.7329 C.ar    1  UNL1        0.0176
      4 C          63.5663   87.0957   13.4187 C.ar    1  UNL1        0.0382
      5 C          63.9246   87.1420   14.8745 C.ar    1  UNL1        0.1388
      6 C          64.1003   85.8668   15.6445 C.ar    1  UNL1        0.0382
      7 C          63.9177   84.5453   14.9587 C.ar    1  UNL1        0.0176
      8 C          62.9735   79.1149    9.2699 C.3     1  UNL1        0.0948
      9 C          62.8288   79.2131   10.7597 C.2     1  UNL1        0.2262
     10 O          62.5015   77.9898   11.5636 O.2     1  UNL1       -0.2749
     11 N          63.0115   80.5346   11.4455 N.am    1  UNL1       -0.2760
     12 C          63.3387   81.7579   10.6415 C.3     1  UNL1        0.1148
     13 C          63.5214   83.0794   11.3273 C.3     1  UNL1        0.1123
     14 N          63.3767   83.1776   12.8171 N.pl3   1  UNL1       -0.3041
     15 C          63.0494   81.9543   13.6210 C.3     1  UNL1        0.1123
     16 C          62.8668   80.6328   12.9352 C.3     1  UNL1        0.1148
     17 C          63.6326   89.7235   14.8992 C.3     1  UNL1        0.2374
     18 C          64.5124   90.9382   14.8809 C.3     1  UNL1        0.1909
     19 C          64.7553   91.8684   16.0323 C.3     1  UNL1        0.1783
     20 O          65.6969   92.9411   15.5710 O.3     1  UNL1       -0.3281
     21 C          66.0358   92.6739   14.1344 C.3     1  UNL1        0.2095
     22 C          66.8754   93.9099   14.2664 C.3     1  UNL1        0.0663
     23 O          65.3038   91.4361   13.7079 O.3     1  UNL1       -0.3269
     24 C          66.5503   92.6651   12.7254 C.ar    1  UNL1        0.0560
     25 C          65.7656   93.3342   11.6362 C.ar    1  UNL1        0.0049
     26 C          66.2801   93.3253   10.2272 C.ar    1  UNL1        0.0296
     27 C          67.5794   92.6473    9.9075 C.ar    1  UNL1        0.1424
     28 F          68.0938   92.6384    8.4985 F       1  UNL1       -0.2041
     29 C          68.3641   91.9781   10.9967 C.ar    1  UNL1        0.0591
     30 C          67.8496   91.9871   12.4057 C.ar    1  UNL1        0.1429
     31 F          68.6343   91.3179   13.4949 F       1  UNL1       -0.2043
@<TRIPOS>BOND
     1     8     9    1
     2     9    10    2
     3     9    11   am
     4    11    12    1
     5    12    13    1
     6    13    14    1
     7    14     2    1
     8     2     3   ar
     9     3     4   ar
    10     4     5   ar
    11     5     1    1
    12     1    17    1
    13    18    17    1
    14    18    19    1
    15    19    20    1
    16    20    21    1
    17    21    22    1
    18    21    24    1
    19    24    25   ar
    20    25    26   ar
    21    26    27   ar
    22    27    28    1
    23    27    29   ar
    24    29    30   ar
    25    30    31    1
    26    21    23    1
    27     5     6   ar
    28     6     7   ar
    29    14    15    1
    30    15    16    1
    31    16    11    1
    32     7     2   ar
    33    23    18    1
    34    30    24   ar
@<TRIPOS>MOLECULE
*****
 31 34 0 0 0
SMALL
GASTEIGER

@<TRIPOS>ATOM
      1 O          62.2924   90.7925   10.3675 O.3     1  UNL1       -0.4727
      2 C          62.4955   86.3790   11.2220 C.ar    1  UNL1        0.0481
      3 C          62.8521   87.3674   12.2924 C.ar    1  UNL1        0.0176
      4 C          62.7844   88.8385   12.0076 C.ar    1  UNL1        0.0382
      5 C          62.3601   89.3213   10.6523 C.ar    1  UNL1        0.1388
      6 C          62.0035   88.3329    9.5819 C.ar    1  UNL1        0.0382
      7 C          62.0712   86.8618    9.8667 C.ar    1  UNL1        0.0176
      8 C          62.6424   79.9969   13.7710 C.3     1  UNL1        0.0948
      9 C          62.7664   80.4944   12.3614 C.2     1  UNL1        0.2262
     10 O          62.9581   79.5207   11.2366 O.2     1  UNL1       -0.2749
     11 N          62.6986   81.9656   12.0765 N.am    1  UNL1       -0.2760
     12 C          62.5069   82.9392   13.2013 C.3     1  UNL1        0.1148
     13 C          62.4392   84.4104   12.9165 C.3     1  UNL1        0.1123
     14 N          62.5632   84.9079   11.5068 N.pl3   1  UNL1       -0.3041
     15 C          62.7549   83.9342   10.3820 C.3     1  UNL1        0.1123
     16 C          62.8226   82.4630   10.6669 C.3     1  UNL1        0.1148
     17 C          63.5520   91.6053   10.3167 C.3     1  UNL1        0.2374
     18 C          64.4084   91.7388   11.5410 C.3     1  UNL1        0.1909
     19 C          65.6019   92.6352   11.6887 C.3     1  UNL1        0.1783
     20 O          66.1527   92.4497   13.0715 O.3     1  UNL1       -0.3281
     21 C          65.2996   91.4386   13.7785 C.3     1  UNL1        0.2095
     22 C          66.2404   91.6770   14.9221 C.3     1  UNL1        0.0663
     23 O          64.2215   90.9992   12.8326 O.3     1  UNL1       -0.3269
     24 C          64.6430   90.4773   14.7245 C.ar    1  UNL1        0.0560
     25 C          64.7324   89.0008   14.4756 C.ar    1  UNL1        0.0049
     26 C          64.0759   88.0396   15.4217 C.ar    1  UNL1        0.0296
     27 C          63.3299   88.5550   16.6167 C.ar    1  UNL1        0.1424
     28 F          62.6734   87.5937   17.5627 F       1  UNL1       -0.2041
     29 C          63.2406   90.0314   16.8656 C.ar    1  UNL1        0.0591
     30 C          63.8971   90.9926   15.9196 C.ar    1  UNL1        0.1429
     31 F          63.8077   92.4691   16.1685 F       1  UNL1       -0.2043
@<TRIPOS>BOND
     1     8     9    1
     2     9    10    2
     3     9    11   am
     4    11    12    1
     5    12    13    1
     6    13    14    1
     7    14     2    1
     8     2     3   ar
     9     3     4   ar
    10     4     5   ar
    11     5     1    1
    12     1    17    1
    13    18    17    1
    14    18    19    1
    15    19    20    1
    16    20    21    1
    17    21    22    1
    18    21    24    1
    19    24    25   ar
    20    25    26   ar
    21    26    27   ar
    22    27    28    1
    23    27    29   ar
    24    29    30   ar
    25    30    31    1
    26    21    23    1
    27     5     6   ar
    28     6     7   ar
    29    14    15    1
    30    15    16    1
    31    16    11    1
    32     7     2   ar
    33    23    18    1
    34    30    24   ar
