@<TRIPOS>MOLECULE
*****
 20 22 0 0 0
SMALL
GASTEIGER

@<TRIPOS>ATOM
      1 C          63.7287   89.5547   13.1100 C.ar    1  UNL1        0.1399
      2 C          64.1045   90.7162   12.2384 C.ar    1  UNL1        0.0515
      3 C          65.0004   91.7947   12.7714 C.ar    1  UNL1        0.0529
      4 C          65.5205   91.7118   14.1759 C.ar    1  UNL1       -0.0078
      5 C          65.1447   90.5503   15.0474 C.ar    1  UNL1        0.0000
      6 C          64.2487   89.4717   14.5144 C.ar    1  UNL1        0.0353
      7 C          66.4164   92.7904   14.7088 C.3     1  UNL1        0.0372
      8 C          66.7923   93.9519   13.8373 C.3     1  UNL1        0.0903
      9 C          66.2722   94.0348   12.4327 C.2     1  UNL1        0.2297
     10 O          66.6480   95.1963   11.5612 O.2     1  UNL1       -0.2745
     11 N          65.3763   92.9563   11.8998 N.am    1  UNL1       -0.2571
     12 C          64.8562   93.0392   10.4953 C.3     1  UNL1        0.1200
     13 C          63.8729   88.3102   15.3861 C.ar    1  UNL1        0.0221
     14 C          63.0919   88.5398   16.6459 C.ar    1  UNL1        0.0032
     15 C          62.7161   87.3783   17.5175 C.ar    1  UNL1        0.0207
     16 C          63.1212   85.9872   17.1293 C.ar    1  UNL1        0.0989
     17 N          63.9023   85.7576   15.8694 N.ar    1  UNL1       -0.2423
     18 C          64.2781   86.9192   14.9978 C.ar    1  UNL1        0.0989
     19 C          62.4442   88.4717   11.1283 C.3     1  UNL1        0.2525
     20 O          62.8327   88.4761   12.5770 O.3     1  UNL1       -0.4714
@<TRIPOS>BOND
     1    19    20    1
     2    20     1    1
     3     1     2   ar
     4     2     3   ar
     5     3     4   ar
     6     4     5   ar
     7     5     6   ar
     8     6    13    1
     9    13    14   ar
    10    14    15   ar
    11    15    16   ar
    12    16    17   ar
    13    17    18   ar
    14     4     7    1
    15     7     8    1
    16     8     9    1
    17     9    10    2
    18     9    11   am
    19    11    12    1
    20     6     1   ar
    21    18    13   ar
    22    11     3    1
@<TRIPOS>MOLECULE
*****
 20 22 0 0 0
SMALL
GASTEIGER

@<TRIPOS>ATOM
      1 C          63.4111   89.2450   12.7790 C.ar    1  UNL1        0.1399
      2 C          62.9220   88.0243   12.0576 C.ar    1  UNL1        0.0515
      3 C          63.1953   86.6608   12.6200 C.ar    1  UNL1        0.0529
      4 C          63.9577   86.5181   13.9038 C.ar    1  UNL1       -0.0078
      5 C          64.4468   87.7389   14.6252 C.ar    1  UNL1        0.0000
      6 C          64.1735   89.1023   14.0628 C.ar    1  UNL1        0.0353
      7 C          64.2310   85.1547   14.4662 C.3     1  UNL1        0.0372
      8 C          63.7418   83.9339   13.7448 C.3     1  UNL1        0.0903
      9 C          62.9793   84.0766   12.4609 C.2     1  UNL1        0.2297
     10 O          62.4902   82.8559   11.7395 O.2     1  UNL1       -0.2745
     11 N          62.7061   85.4401   11.8985 N.am    1  UNL1       -0.2571
     12 C          61.9436   85.5828   10.6147 C.3     1  UNL1        0.1200
     13 C          64.6627   90.3231   14.7843 C.ar    1  UNL1        0.0221
     14 C          65.9667   90.9531   14.3935 C.ar    1  UNL1        0.0032
     15 C          66.4559   92.1738   15.1149 C.ar    1  UNL1        0.0207
     16 C          65.6411   92.7646   16.2273 C.ar    1  UNL1        0.0989
     17 N          64.3372   92.1345   16.6181 N.ar    1  UNL1       -0.2423
     18 C          63.8480   90.9138   15.8966 C.ar    1  UNL1        0.0989
     19 C          63.0656   90.8065   10.7315 C.3     1  UNL1        0.2525
     20 O          63.1378   90.6085   12.2166 O.3     1  UNL1       -0.4714
@<TRIPOS>BOND
     1    19    20    1
     2    20     1    1
     3     1     2   ar
     4     2     3   ar
     5     3     4   ar
     6     4     5   ar
     7     5     6   ar
     8     6    13    1
     9    13    14   ar
    10    14    15   ar
    11    15    16   ar
    12    16    17   ar
    13    17    18   ar
    14     4     7    1
    15     7     8    1
    16     8     9    1
    17     9    10    2
    18     9    11   am
    19    11    12    1
    20     6     1   ar
    21    18    13   ar
    22    11     3    1
@<TRIPOS>MOLECULE
*****
 20 22 0 0 0
SMALL
GASTEIGER

@<TRIPOS>ATOM
      1 C          62.3327   86.1080   11.4191 C.ar    1  UNL1        0.1399
      2 C          62.4620   87.6003   11.3401 C.ar    1  UNL1        0.0515
      3 C          63.2061   88.3462   12.4078 C.ar    1  UNL1        0.0529
      4 C          63.8209   87.5999   13.5544 C.ar    1  UNL1       -0.0078
      5 C          63.6916   86.1076   13.6334 C.ar    1  UNL1        0.0000
      6 C          62.9475   85.3616   12.5658 C.ar    1  UNL1        0.0353
      7 C          64.5649   88.3458   14.6221 C.3     1  UNL1        0.0372
      8 C          64.6942   89.8381   14.5431 C.3     1  UNL1        0.0903
      9 C          64.0794   90.5845   13.3964 C.2     1  UNL1        0.2297
     10 O          64.2087   92.0768   13.3174 O.2     1  UNL1       -0.2745
     11 N          63.3353   89.8386   12.3287 N.am    1  UNL1       -0.2571
     12 C          62.7205   90.5850   11.1821 C.3     1  UNL1        0.1200
     13 C          62.8182   83.8692   12.6448 C.ar    1  UNL1        0.0221
     14 C          63.1712   83.0220   11.4584 C.ar    1  UNL1        0.0032
     15 C          63.0419   81.5297   11.5374 C.ar    1  UNL1        0.0207
     16 C          62.5597   80.8846   12.8028 C.ar    1  UNL1        0.0989
     17 N          62.2068   81.7318   13.9893 N.ar    1  UNL1       -0.2423
     18 C          62.3361   83.2242   13.9102 C.ar    1  UNL1        0.0989
     19 C          61.0697   86.0929    9.1487 C.3     1  UNL1        0.2525
     20 O          61.5886   85.3621   10.3514 O.3     1  UNL1       -0.4714
@<TRIPOS>BOND
     1    19    20    1
     2    20     1    1
     3     1     2   ar
     4     2     3   ar
     5     3     4   ar
     6     4     5   ar
     7     5     6   ar
     8     6    13    1
     9    13    14   ar
    10    14    15   ar
    11    15    16   ar
    12    16    17   ar
    13    17    18   ar
    14     4     7    1
    15     7     8    1
    16     8     9    1
    17     9    10    2
    18     9    11   am
    19    11    12    1
    20     6     1   ar
    21    18    13   ar
    22    11     3    1
@<TRIPOS>MOLECULE
*****
 20 22 0 0 0
SMALL
GASTEIGER

@<TRIPOS>ATOM
      1 C          63.5395   85.6061   13.6019 C.ar    1  UNL1        0.1399
      2 C          63.6390   87.0823   13.3550 C.ar    1  UNL1        0.0515
      3 C          62.9972   87.6845   12.1403 C.ar    1  UNL1        0.0529
      4 C          62.2559   86.8105   11.1725 C.ar    1  UNL1       -0.0078
      5 C          62.1565   85.3343   11.4194 C.ar    1  UNL1        0.0000
      6 C          62.7983   84.7321   12.6341 C.ar    1  UNL1        0.0353
      7 C          61.6141   87.4127    9.9579 C.3     1  UNL1        0.0372
      8 C          61.7136   88.8889    9.7110 C.3     1  UNL1        0.0903
      9 C          62.4549   89.7629   10.6788 C.2     1  UNL1        0.2297
     10 O          62.5543   91.2391   10.4319 O.2     1  UNL1       -0.2745
     11 N          63.0967   89.1607   11.8935 N.am    1  UNL1       -0.2571
     12 C          63.8379   90.0347   12.8613 C.3     1  UNL1        0.1200
     13 C          62.6988   83.2559   12.8809 C.ar    1  UNL1        0.0221
     14 C          63.0233   82.2881   11.7818 C.ar    1  UNL1        0.0032
     15 C          62.9238   80.8120   12.0285 C.ar    1  UNL1        0.0207
     16 C          62.4998   80.3034   13.3746 C.ar    1  UNL1        0.0989
     17 N          62.1753   81.2712   14.4738 N.ar    1  UNL1       -0.2423
     18 C          62.2748   82.7474   14.2269 C.ar    1  UNL1        0.0989
     19 C          63.8711   85.5514   16.1781 C.3     1  UNL1        0.2525
     20 O          64.1814   85.0039   14.8165 O.3     1  UNL1       -0.4714
@<TRIPOS>BOND
     1    19    20    1
     2    20     1    1
     3     1     2   ar
     4     2     3   ar
     5     3     4   ar
     6     4     5   ar
     7     5     6   ar
     8     6    13    1
     9    13    14   ar
    10    14    15   ar
    11    15    16   ar
    12    16    17   ar
    13    17    18   ar
    14     4     7    1
    15     7     8    1
    16     8     9    1
    17     9    10    2
    18     9    11   am
    19    11    12    1
    20     6     1   ar
    21    18    13   ar
    22    11     3    1
@<TRIPOS>MOLECULE
*****
 20 22 0 0 0
SMALL
GASTEIGER

@<TRIPOS>ATOM
      1 C          63.8928   88.4019   13.5170 C.ar    1  UNL1        0.1399
      2 C          63.1538   87.4828   12.5901 C.ar    1  UNL1        0.0515
      3 C          62.3802   88.0458   11.4349 C.ar    1  UNL1        0.0529
      4 C          62.3456   89.5279   11.2065 C.ar    1  UNL1       -0.0078
      5 C          63.0847   90.4470   12.1333 C.ar    1  UNL1        0.0000
      6 C          63.8583   89.8840   13.2886 C.ar    1  UNL1        0.0353
      7 C          61.5721   90.0909   10.0512 C.3     1  UNL1        0.0372
      8 C          60.8330   89.1718    9.1244 C.3     1  UNL1        0.0903
      9 C          60.8676   87.6897    9.3528 C.2     1  UNL1        0.2297
     10 O          60.1286   86.7706    8.4259 O.2     1  UNL1       -0.2745
     11 N          61.6412   87.1267   10.5080 N.am    1  UNL1       -0.2571
     12 C          61.6758   85.6446   10.7364 C.3     1  UNL1        0.1200
     13 C          64.5973   90.8031   14.2155 C.ar    1  UNL1        0.0221
     14 C          65.9492   91.3274   13.8314 C.ar    1  UNL1        0.0032
     15 C          66.6883   92.2465   14.7582 C.ar    1  UNL1        0.0207
     16 C          66.0754   92.6414   16.0691 C.ar    1  UNL1        0.0989
     17 N          64.7235   92.1172   16.4532 N.ar    1  UNL1       -0.2423
     18 C          63.9844   91.1980   15.5263 C.ar    1  UNL1        0.0989
     19 C          64.6018   86.3710   14.9740 C.3     1  UNL1        0.2525
     20 O          64.6664   87.8389   14.6722 O.3     1  UNL1       -0.4714
@<TRIPOS>BOND
     1    19    20    1
     2    20     1    1
     3     1     2   ar
     4     2     3   ar
     5     3     4   ar
     6     4     5   ar
     7     5     6   ar
     8     6    13    1
     9    13    14   ar
    10    14    15   ar
    11    15    16   ar
    12    16    17   ar
    13    17    18   ar
    14     4     7    1
    15     7     8    1
    16     8     9    1
    17     9    10    2
    18     9    11   am
    19    11    12    1
    20     6     1   ar
    21    18    13   ar
    22    11     3    1
@<TRIPOS>MOLECULE
*****
 20 22 0 0 0
SMALL
GASTEIGER

@<TRIPOS>ATOM
      1 C          62.6213   86.9661   11.8505 C.ar    1  UNL1        0.1399
      2 C          62.0335   88.0963   11.0586 C.ar    1  UNL1        0.0515
      3 C          61.1941   87.8079    9.8494 C.ar    1  UNL1        0.0529
      4 C          60.9426   86.3893    9.4320 C.ar    1  UNL1       -0.0078
      5 C          61.5304   85.2591   10.2238 C.ar    1  UNL1        0.0000
      6 C          62.3697   85.5475   11.4331 C.ar    1  UNL1        0.0353
      7 C          60.1032   86.1009    8.2228 C.3     1  UNL1        0.0372
      8 C          59.5154   87.2311    7.4309 C.3     1  UNL1        0.0903
      9 C          59.7669   88.6498    7.8483 C.2     1  UNL1        0.2297
     10 O          59.1791   89.7800    7.0564 O.2     1  UNL1       -0.2745
     11 N          60.6063   88.9382    9.0575 N.am    1  UNL1       -0.2571
     12 C          60.8579   90.3568    9.4749 C.3     1  UNL1        0.1200
     13 C          62.9576   84.4172   12.2250 C.ar    1  UNL1        0.0221
     14 C          63.8951   83.4485   11.5671 C.ar    1  UNL1        0.0032
     15 C          64.4829   82.3183   12.3589 C.ar    1  UNL1        0.0207
     16 C          64.1332   82.1566   13.8086 C.ar    1  UNL1        0.0989
     17 N          63.1956   83.1252   14.4665 N.ar    1  UNL1       -0.2423
     18 C          62.6078   84.2555   13.6746 C.ar    1  UNL1        0.0989
     19 C          63.8309   88.6686   13.3958 C.3     1  UNL1        0.2525
     20 O          63.4607   87.2544   13.0597 O.3     1  UNL1       -0.4714
@<TRIPOS>BOND
     1    19    20    1
     2    20     1    1
     3     1     2   ar
     4     2     3   ar
     5     3     4   ar
     6     4     5   ar
     7     5     6   ar
     8     6    13    1
     9    13    14   ar
    10    14    15   ar
    11    15    16   ar
    12    16    17   ar
    13    17    18   ar
    14     4     7    1
    15     7     8    1
    16     8     9    1
    17     9    10    2
    18     9    11   am
    19    11    12    1
    20     6     1   ar
    21    18    13   ar
    22    11     3    1
@<TRIPOS>MOLECULE
*****
 20 22 0 0 0
SMALL
GASTEIGER

@<TRIPOS>ATOM
      1 C          62.4375   87.5957   11.5854 C.ar    1  UNL1        0.1399
      2 C          63.2256   86.9949   12.7114 C.ar    1  UNL1        0.0515
      3 C          63.2594   85.5063   12.8925 C.ar    1  UNL1        0.0529
      4 C          62.5052   84.6184   11.9476 C.ar    1  UNL1       -0.0078
      5 C          61.7171   85.2193   10.8216 C.ar    1  UNL1        0.0000
      6 C          61.6833   86.7079   10.6405 C.ar    1  UNL1        0.0353
      7 C          62.5390   83.1298   12.1286 C.3     1  UNL1        0.0372
      8 C          63.3271   82.5290   13.2546 C.3     1  UNL1        0.0903
      9 C          64.0814   83.4168   14.1996 C.2     1  UNL1        0.2297
     10 O          64.8695   82.8160   15.3256 O.2     1  UNL1       -0.2745
     11 N          64.0476   84.9054   14.0185 N.am    1  UNL1       -0.2571
     12 C          64.8018   85.7932   14.9634 C.3     1  UNL1        0.1200
     13 C          60.8952   87.3087    9.5144 C.ar    1  UNL1        0.0221
     14 C          60.1300   86.4217    8.5776 C.ar    1  UNL1        0.0032
     15 C          59.3419   87.0224    7.4516 C.ar    1  UNL1        0.0207
     16 C          59.3190   88.5103    7.2623 C.ar    1  UNL1        0.0989
     17 N          60.0841   89.3974    8.1991 N.ar    1  UNL1       -0.2423
     18 C          60.8723   88.7966    9.3252 C.ar    1  UNL1        0.0989
     19 C          63.0838   89.9767   12.3998 C.3     1  UNL1        0.2525
     20 O          62.4037   89.0844   11.4043 O.3     1  UNL1       -0.4714
@<TRIPOS>BOND
     1    19    20    1
     2    20     1    1
     3     1     2   ar
     4     2     3   ar
     5     3     4   ar
     6     4     5   ar
     7     5     6   ar
     8     6    13    1
     9    13    14   ar
    10    14    15   ar
    11    15    16   ar
    12    16    17   ar
    13    17    18   ar
    14     4     7    1
    15     7     8    1
    16     8     9    1
    17     9    10    2
    18     9    11   am
    19    11    12    1
    20     6     1   ar
    21    18    13   ar
    22    11     3    1
@<TRIPOS>MOLECULE
*****
 20 22 0 0 0
SMALL
GASTEIGER

@<TRIPOS>ATOM
      1 C          60.9745   88.9332   10.8491 C.ar    1  UNL1        0.1399
      2 C          60.2810   88.1718    9.7585 C.ar    1  UNL1        0.0515
      3 C          61.0075   87.0841    9.0243 C.ar    1  UNL1        0.0529
      4 C          62.4275   86.7577    9.3807 C.ar    1  UNL1       -0.0078
      5 C          63.1210   87.5191   10.4713 C.ar    1  UNL1        0.0000
      6 C          62.3945   88.6068   11.2054 C.ar    1  UNL1        0.0353
      7 C          63.1541   85.6700    8.6465 C.3     1  UNL1        0.0372
      8 C          62.4606   84.9086    7.5560 C.3     1  UNL1        0.0903
      9 C          61.0405   85.2350    7.1995 C.2     1  UNL1        0.2297
     10 O          60.3470   84.4736    6.1090 O.2     1  UNL1       -0.2745
     11 N          60.3140   86.3227    7.9337 N.am    1  UNL1       -0.2571
     12 C          58.8940   86.6491    7.5774 C.3     1  UNL1        0.1200
     13 C          63.0881   89.3682   12.2961 C.ar    1  UNL1        0.0221
     14 C          63.6499   88.6382   13.4799 C.ar    1  UNL1        0.0032
     15 C          64.3434   89.3995   14.5705 C.ar    1  UNL1        0.0207
     16 C          64.4751   90.8909   14.4772 C.ar    1  UNL1        0.0989
     17 N          63.9133   91.6208   13.2934 N.ar    1  UNL1       -0.2423
     18 C          63.2197   90.8595   12.2028 C.ar    1  UNL1        0.0989
     19 C          59.0888   89.6808   12.4724 C.3     1  UNL1        0.2525
     20 O          60.2480   90.0209   11.5833 O.3     1  UNL1       -0.4714
@<TRIPOS>BOND
     1    19    20    1
     2    20     1    1
     3     1     2   ar
     4     2     3   ar
     5     3     4   ar
     6     4     5   ar
     7     5     6   ar
     8     6    13    1
     9    13    14   ar
    10    14    15   ar
    11    15    16   ar
    12    16    17   ar
    13    17    18   ar
    14     4     7    1
    15     7     8    1
    16     8     9    1
    17     9    10    2
    18     9    11   am
    19    11    12    1
    20     6     1   ar
    21    18    13   ar
    22    11     3    1
@<TRIPOS>MOLECULE
*****
 20 22 0 0 0
SMALL
GASTEIGER

@<TRIPOS>ATOM
      1 C          63.3701   88.5004   12.6956 C.ar    1  UNL1        0.1399
      2 C          63.0344   87.1935   12.0405 C.ar    1  UNL1        0.0515
      3 C          63.3364   85.9030   12.7429 C.ar    1  UNL1        0.0529
      4 C          63.9741   85.9194   14.1005 C.ar    1  UNL1       -0.0078
      5 C          64.3099   87.2263   14.7556 C.ar    1  UNL1        0.0000
      6 C          64.0078   88.5168   14.0531 C.ar    1  UNL1        0.0353
      7 C          64.2762   84.6289   14.8029 C.3     1  UNL1        0.0372
      8 C          63.9405   83.3220   14.1478 C.3     1  UNL1        0.0903
      9 C          63.3027   83.3055   12.7902 C.2     1  UNL1        0.2297
     10 O          62.9670   81.9986   12.1351 O.2     1  UNL1       -0.2745
     11 N          63.0006   84.5960   12.0878 N.am    1  UNL1       -0.2571
     12 C          62.3629   84.5796   10.7302 C.3     1  UNL1        0.1200
     13 C          64.3436   89.8238   14.7083 C.ar    1  UNL1        0.0221
     14 C          63.6709   90.2145   15.9908 C.ar    1  UNL1        0.0032
     15 C          64.0066   91.5213   16.6460 C.ar    1  UNL1        0.0207
     16 C          65.0150   92.4377   16.0186 C.ar    1  UNL1        0.0989
     17 N          65.6877   92.0470   14.7361 N.ar    1  UNL1       -0.2423
     18 C          65.3520   90.7400   14.0809 C.ar    1  UNL1        0.0989
     19 C          62.3517   89.7777   10.6753 C.3     1  UNL1        0.2525
     20 O          63.0680   89.7909   11.9931 O.3     1  UNL1       -0.4714
@<TRIPOS>BOND
     1    19    20    1
     2    20     1    1
     3     1     2   ar
     4     2     3   ar
     5     3     4   ar
     6     4     5   ar
     7     5     6   ar
     8     6    13    1
     9    13    14   ar
    10    14    15   ar
    11    15    16   ar
    12    16    17   ar
    13    17    18   ar
    14     4     7    1
    15     7     8    1
    16     8     9    1
    17     9    10    2
    18     9    11   am
    19    11    12    1
    20     6     1   ar
    21    18    13   ar
    22    11     3    1
