@<TRIPOS>MOLECULE
*****
 37 39 0 0 0
SMALL
GASTEIGER

@<TRIPOS>ATOM
      1 N          63.4147   86.0517   13.5810 N.pl3   1  UNL1       -0.2927
      2 C          62.8855   86.8655   12.4374 C.3     1  UNL1        0.0927
      3 C          63.2321   88.3209   12.3289 C.3     1  UNL1        0.0306
      4 C          64.1078   88.9625   13.3640 C.3     1  UNL1        0.0814
      5 C          64.6369   88.1487   14.5076 C.3     1  UNL1        0.0306
      6 C          64.2903   86.6934   14.6160 C.3     1  UNL1        0.0927
      7 C          62.3750   81.6856   13.9064 C.ar    1  UNL1        0.0900
      8 C          62.2174   82.5848   15.0965 C.ar    1  UNL1        0.0207
      9 C          62.5640   84.0402   14.9881 C.ar    1  UNL1        0.1001
     10 C          63.0681   84.5964   13.6894 C.ar    1  UNL1        0.1409
     11 N          63.2256   83.6971   12.4993 N.ar    1  UNL1       -0.2341
     12 C          62.8791   82.2418   12.6077 C.ar    1  UNL1        0.0670
     13 C          63.0367   81.3425   11.4175 C.3     1  UNL1        0.0524
     14 C          62.0284   80.2302   14.0149 C.2     1  UNL1        0.3424
     15 O          63.0323   79.2589   14.5613 O.2     1  UNL1       -0.2449
     16 O          60.6779   79.7462   13.5769 O.3     1  UNL1       -0.4454
     17 C          58.4936   79.3661   14.9313 C.3     1  UNL1        0.0513
     18 C          59.4395   80.2912   14.2244 C.3     1  UNL1        0.2089
     19 C          62.4064   84.9394   16.1783 C.1     1  UNL1        0.1032
     20 N          62.2489   85.8386   17.3685 N.1     1  UNL1       -0.1907
     21 C          64.4543   90.4179   13.2556 C.2     1  UNL1        0.2402
     22 O          63.5486   91.3508   12.5078 O.2     1  UNL1       -0.2736
     23 N          65.7067   90.9403   13.8948 N.am    1  UNL1       -0.1885
     24 H          66.3012   90.3280   14.3856 H       1  UNL1        0.1762
     25 S          66.0532   92.3957   13.7863 S.O2    1  UNL1        0.0602
     26 O          67.2585   92.0474   12.9641 O.2     1  UNL1       -0.1541
     27 O          64.8480   92.7440   14.6086 O.2     1  UNL1       -0.1541
     28 C          66.3998   93.8511   13.6779 C.3     1  UNL1        0.1988
     29 C          66.4262   94.5176   12.3344 C.ar    1  UNL1        0.0032
     30 C          66.4513   96.0145   12.2402 C.ar    1  UNL1       -0.0028
     31 C          66.4776   96.6811   10.8967 C.ar    1  UNL1       -0.0045
     32 C          66.4789   95.8508    9.6474 C.ar    1  UNL1       -0.0225
     33 C          66.4538   94.3540    9.7416 C.ar    1  UNL1       -0.0045
     34 C          66.4274   93.6874   11.0852 C.ar    1  UNL1       -0.0028
     35 C          66.5053   96.5174    8.3040 C.3     1  UNL1        0.0224
     36 C          65.2197   96.8502    7.6065 C.3     1  UNL1        0.0047
     37 C          67.8173   96.8512    7.6579 C.3     1  UNL1        0.0047
@<TRIPOS>BOND
     1    17    18    1
     2    18    16    1
     3    16    14    1
     4    14    15    2
     5    14     7    1
     6     7     8   ar
     7     8     9   ar
     8     9    19    1
     9    19    20    3
    10     9    10   ar
    11    10     1    1
    12     1     2    1
    13     2     3    1
    14     3     4    1
    15     4    21    1
    16    21    22    2
    17    21    23   am
    18    23    25    1
    19    25    26    2
    20    25    27    2
    21    25    28    1
    22    28    29    1
    23    29    30   ar
    24    30    31   ar
    25    31    32   ar
    26    32    35    1
    27    35    36    1
    28    35    37    1
    29    32    33   ar
    30    33    34   ar
    31     4     5    1
    32     5     6    1
    33    10    11   ar
    34    11    12   ar
    35    12    13    1
    36    12     7   ar
    37     6     1    1
    38    34    29   ar
    39    23    24    1
@<TRIPOS>MOLECULE
*****
 37 39 0 0 0
SMALL
GASTEIGER

@<TRIPOS>ATOM
      1 N          60.9678   93.1158    2.0049 N.pl3   1  UNL1       -0.2927
      2 C          61.9287   92.3507    2.8659 C.3     1  UNL1        0.0927
      3 C          61.4219   91.5592    4.0349 C.3     1  UNL1        0.0306
      4 C          59.9541   91.5327    4.3430 C.3     1  UNL1        0.0814
      5 C          58.9932   92.2978    3.4820 C.3     1  UNL1        0.0306
      6 C          59.5001   93.0893    2.3130 C.3     1  UNL1        0.0927
      7 C          62.4884   95.4903   -1.5022 C.ar    1  UNL1        0.0900
      8 C          61.7517   96.1798   -0.3923 C.ar    1  UNL1        0.0207
      9 C          61.2449   95.3883    0.7767 C.ar    1  UNL1        0.1001
     10 C          61.4747   93.9073    0.8359 C.ar    1  UNL1        0.1409
     11 N          62.2114   93.2177   -0.2739 N.ar    1  UNL1       -0.2341
     12 C          62.7182   94.0092   -1.4430 C.ar    1  UNL1        0.0670
     13 C          63.4549   93.3196   -2.5528 C.3     1  UNL1        0.0524
     14 C          62.9952   96.2818   -2.6712 C.2     1  UNL1        0.3424
     15 O          62.0886   96.5716   -3.8304 O.2     1  UNL1       -0.2449
     16 O          64.4088   96.7835   -2.6810 O.3     1  UNL1       -0.4454
     17 C          65.4606   96.8547   -0.3063 C.3     1  UNL1        0.0513
     18 C          65.3975   96.2597   -1.6819 C.3     1  UNL1        0.2089
     19 C          60.5082   96.0780    1.8866 C.1     1  UNL1        0.1032
     20 N          59.7715   96.7676    2.9963 N.1     1  UNL1       -0.1907
     21 C          59.4473   90.7412    5.5120 C.2     1  UNL1        0.2402
     22 O          58.0013   90.8224    5.9024 O.2     1  UNL1       -0.2736
     23 N          60.3864   89.8685    6.2907 N.am    1  UNL1       -0.1885
     24 H          61.3355   89.8153    6.0344 H       1  UNL1        0.1762
     25 S          59.8796   89.0770    7.4597 S.O2    1  UNL1        0.0602
     26 O          59.1426   88.1659    6.5233 O.2     1  UNL1       -0.1541
     27 O          60.6165   89.9881    8.3961 O.2     1  UNL1       -0.1541
     28 C          59.3727   88.2855    8.6287 C.3     1  UNL1        0.1988
     29 C          60.2770   87.3110    9.3233 C.ar    1  UNL1        0.0032
     30 C          61.0252   86.2833    8.5270 C.ar    1  UNL1       -0.0028
     31 C          61.9295   85.3088    9.2217 C.ar    1  UNL1       -0.0045
     32 C          62.0857   85.3620   10.7126 C.ar    1  UNL1       -0.0225
     33 C          61.3375   86.3897   11.5089 C.ar    1  UNL1       -0.0045
     34 C          60.4331   87.3642   10.8142 C.ar    1  UNL1       -0.0028
     35 C          62.9900   84.3875   11.4072 C.3     1  UNL1        0.0224
     36 C          63.8017   83.4143   10.6047 C.3     1  UNL1        0.0047
     37 C          63.0826   84.3861   12.9044 C.3     1  UNL1        0.0047
@<TRIPOS>BOND
     1    17    18    1
     2    18    16    1
     3    16    14    1
     4    14    15    2
     5    14     7    1
     6     7     8   ar
     7     8     9   ar
     8     9    19    1
     9    19    20    3
    10     9    10   ar
    11    10     1    1
    12     1     2    1
    13     2     3    1
    14     3     4    1
    15     4    21    1
    16    21    22    2
    17    21    23   am
    18    23    25    1
    19    25    26    2
    20    25    27    2
    21    25    28    1
    22    28    29    1
    23    29    30   ar
    24    30    31   ar
    25    31    32   ar
    26    32    35    1
    27    35    36    1
    28    35    37    1
    29    32    33   ar
    30    33    34   ar
    31     4     5    1
    32     5     6    1
    33    10    11   ar
    34    11    12   ar
    35    12    13    1
    36    12     7   ar
    37     6     1    1
    38    34    29   ar
    39    23    24    1
@<TRIPOS>MOLECULE
*****
 37 39 0 0 0
SMALL
GASTEIGER

@<TRIPOS>ATOM
      1 N          60.9949   87.4121    8.9883 N.pl3   1  UNL1       -0.2927
      2 C          60.2448   86.8897    7.7990 C.3     1  UNL1        0.0927
      3 C          59.7012   87.8435    6.7770 C.3     1  UNL1        0.0306
      4 C          59.9077   89.3198    6.9441 C.3     1  UNL1        0.0814
      5 C          60.6579   89.8422    8.1333 C.3     1  UNL1        0.0306
      6 C          61.2015   88.8883    9.1554 C.3     1  UNL1        0.0927
      7 C          62.6258   84.5506   12.0545 C.ar    1  UNL1        0.0900
      8 C          61.7345   85.6790   12.4811 C.ar    1  UNL1        0.0207
      9 C          61.1908   86.6329   11.4590 C.ar    1  UNL1        0.1001
     10 C          61.5386   86.4583   10.0104 C.ar    1  UNL1        0.1409
     11 N          62.4299   85.3298    9.5838 N.ar    1  UNL1       -0.2341
     12 C          62.9736   84.3759   10.6059 C.ar    1  UNL1        0.0670
     13 C          63.8650   83.2474   10.1793 C.3     1  UNL1        0.0524
     14 C          63.1694   83.5967   13.0766 C.2     1  UNL1        0.3424
     15 O          62.5112   82.2650   13.2846 O.2     1  UNL1       -0.2449
     16 O          64.3713   83.9746   13.8907 O.3     1  UNL1       -0.4454
     17 C          64.5744   86.3606   14.8985 C.3     1  UNL1        0.0513
     18 C          64.2252   84.9101   15.0541 C.3     1  UNL1        0.2089
     19 C          60.2994   87.7614   11.8856 C.1     1  UNL1        0.1032
     20 N          59.4081   88.8899   12.3122 N.1     1  UNL1       -0.1907
     21 C          59.3641   90.2736    5.9220 C.2     1  UNL1        0.2402
     22 O          57.8929   90.3029    5.6311 O.2     1  UNL1       -0.2736
     23 N          60.2916   91.1982    5.1908 N.am    1  UNL1       -0.1885
     24 H          61.2573   91.1790    5.3817 H       1  UNL1        0.1762
     25 S          59.7480   92.1520    4.1687 S.O2    1  UNL1        0.0602
     26 O          60.9909   91.9797    3.3468 O.2     1  UNL1       -0.1541
     27 O          58.5051   92.3243    4.9906 O.2     1  UNL1       -0.1541
     28 C          59.2044   93.1059    3.1466 C.3     1  UNL1        0.1988
     29 C          59.8947   93.2616    1.8241 C.ar    1  UNL1        0.0032
     30 C          60.9752   94.2888    1.6584 C.ar    1  UNL1       -0.0028
     31 C          61.6655   94.4445    0.3359 C.ar    1  UNL1       -0.0045
     32 C          61.2754   93.5730   -0.8211 C.ar    1  UNL1       -0.0225
     33 C          60.1949   92.5458   -0.6554 C.ar    1  UNL1       -0.0045
     34 C          59.5046   92.3901    0.6673 C.ar    1  UNL1       -0.0028
     35 C          61.9657   93.7288   -2.1436 C.3     1  UNL1        0.0224
     36 C          61.1617   93.9843   -3.3838 C.3     1  UNL1        0.0047
     37 C          63.4602   93.6290   -2.2259 C.3     1  UNL1        0.0047
@<TRIPOS>BOND
     1    17    18    1
     2    18    16    1
     3    16    14    1
     4    14    15    2
     5    14     7    1
     6     7     8   ar
     7     8     9   ar
     8     9    19    1
     9    19    20    3
    10     9    10   ar
    11    10     1    1
    12     1     2    1
    13     2     3    1
    14     3     4    1
    15     4    21    1
    16    21    22    2
    17    21    23   am
    18    23    25    1
    19    25    26    2
    20    25    27    2
    21    25    28    1
    22    28    29    1
    23    29    30   ar
    24    30    31   ar
    25    31    32   ar
    26    32    35    1
    27    35    36    1
    28    35    37    1
    29    32    33   ar
    30    33    34   ar
    31     4     5    1
    32     5     6    1
    33    10    11   ar
    34    11    12   ar
    35    12    13    1
    36    12     7   ar
    37     6     1    1
    38    34    29   ar
    39    23    24    1
@<TRIPOS>MOLECULE
*****
 37 39 0 0 0
SMALL
GASTEIGER

@<TRIPOS>ATOM
      1 N          60.9907   87.4493    9.0164 N.pl3   1  UNL1       -0.2927
      2 C          60.2470   86.9116    7.8299 C.3     1  UNL1        0.0927
      3 C          59.7031   87.8527    6.7962 C.3     1  UNL1        0.0306
      4 C          59.9030   89.3314    6.9489 C.3     1  UNL1        0.0814
      5 C          60.6467   89.8691    8.1353 C.3     1  UNL1        0.0306
      6 C          61.1905   88.9280    9.1691 C.3     1  UNL1        0.0927
      7 C          62.6222   84.6262   12.1176 C.ar    1  UNL1        0.0900
      8 C          61.7528   85.7757   12.5332 C.ar    1  UNL1        0.0207
      9 C          61.2090   86.7167   11.4994 C.ar    1  UNL1        0.1001
     10 C          61.5345   86.5083   10.0501 C.ar    1  UNL1        0.1409
     11 N          62.4040   85.3588    9.6346 N.ar    1  UNL1       -0.2341
     12 C          62.9478   84.4177   10.6684 C.ar    1  UNL1        0.0670
     13 C          63.8173   83.2682   10.2527 C.3     1  UNL1        0.0524
     14 C          63.1661   83.6851   13.1514 C.2     1  UNL1        0.3424
     15 O          64.6293   83.6976   13.4813 O.2     1  UNL1       -0.2449
     16 O          62.2468   82.7316   13.8553 O.3     1  UNL1       -0.4454
     17 C          62.7014   80.5286   12.5552 C.3     1  UNL1        0.0513
     18 C          62.5469   81.2619   13.8546 C.3     1  UNL1        0.2089
     19 C          60.3395   87.8663   11.9150 C.1     1  UNL1        0.1032
     20 N          59.4701   89.0157   12.3307 N.1     1  UNL1       -0.1907
     21 C          59.3591   90.2725    5.9151 C.2     1  UNL1        0.2402
     22 O          57.8910   90.2820    5.6079 O.2     1  UNL1       -0.2736
     23 N          60.2834   91.2039    5.1885 N.am    1  UNL1       -0.1885
     24 H          61.2470   91.1977    5.3901 H       1  UNL1        0.1762
     25 S          59.7396   92.1450    4.1548 S.O2    1  UNL1        0.0602
     26 O          58.4891   92.3134    4.9659 O.2     1  UNL1       -0.1541
     27 O          60.9900   91.9766    3.3436 O.2     1  UNL1       -0.1541
     28 C          59.1957   93.0860    3.1210 C.3     1  UNL1        0.1988
     29 C          59.8996   93.2436    1.8059 C.ar    1  UNL1        0.0032
     30 C          59.5457   92.3503    0.6540 C.ar    1  UNL1       -0.0028
     31 C          60.2496   92.5079   -0.6611 C.ar    1  UNL1       -0.0045
     32 C          61.3075   93.5588   -0.8245 C.ar    1  UNL1       -0.0225
     33 C          61.6614   94.4521    0.3274 C.ar    1  UNL1       -0.0045
     34 C          60.9574   94.2945    1.6426 C.ar    1  UNL1       -0.0028
     35 C          62.0114   93.7164   -2.1396 C.3     1  UNL1        0.0224
     36 C          63.5048   93.5950   -2.2103 C.3     1  UNL1        0.0047
     37 C          61.2218   93.9953   -3.3842 C.3     1  UNL1        0.0047
@<TRIPOS>BOND
     1    17    18    1
     2    18    16    1
     3    16    14    1
     4    14    15    2
     5    14     7    1
     6     7     8   ar
     7     8     9   ar
     8     9    19    1
     9    19    20    3
    10     9    10   ar
    11    10     1    1
    12     1     2    1
    13     2     3    1
    14     3     4    1
    15     4    21    1
    16    21    22    2
    17    21    23   am
    18    23    25    1
    19    25    26    2
    20    25    27    2
    21    25    28    1
    22    28    29    1
    23    29    30   ar
    24    30    31   ar
    25    31    32   ar
    26    32    35    1
    27    35    36    1
    28    35    37    1
    29    32    33   ar
    30    33    34   ar
    31     4     5    1
    32     5     6    1
    33    10    11   ar
    34    11    12   ar
    35    12    13    1
    36    12     7   ar
    37     6     1    1
    38    34    29   ar
    39    23    24    1
@<TRIPOS>MOLECULE
*****
 37 39 0 0 0
SMALL
GASTEIGER

@<TRIPOS>ATOM
      1 N          60.1655   92.5856    3.0413 N.pl3   1  UNL1       -0.2927
      2 C          61.2959   91.8017    3.6394 C.3     1  UNL1        0.0927
      3 C          61.0461   90.9022    4.8135 C.3     1  UNL1        0.0306
      4 C          59.6660   90.7866    5.3895 C.3     1  UNL1        0.0814
      5 C          58.5356   91.5705    4.7914 C.3     1  UNL1        0.0306
      6 C          58.7854   92.4700    3.6173 C.3     1  UNL1        0.0927
      7 C          60.9149   95.2842   -0.4809 C.ar    1  UNL1        0.0900
      8 C          62.0188   94.4174    0.0480 C.ar    1  UNL1        0.0207
      9 C          61.7691   93.5179    1.2221 C.ar    1  UNL1        0.1001
     10 C          60.4153   93.4852    1.8673 C.ar    1  UNL1        0.1409
     11 N          59.3113   94.3520    1.3383 N.ar    1  UNL1       -0.2341
     12 C          59.5611   95.2515    0.1642 C.ar    1  UNL1        0.0670
     13 C          58.4571   96.1183   -0.3647 C.3     1  UNL1        0.0524
     14 C          61.1647   96.1837   -1.6550 C.2     1  UNL1        0.3424
     15 O          60.0830   96.4112   -2.6690 O.2     1  UNL1       -0.2449
     16 O          62.4961   96.8557   -1.8151 O.3     1  UNL1       -0.4454
     17 C          64.7811   95.6923   -2.2333 C.3     1  UNL1        0.0513
     18 C          63.5120   96.2911   -2.7633 C.3     1  UNL1        0.2089
     19 C          62.8731   92.6510    1.7511 C.1     1  UNL1        0.1032
     20 N          63.9771   91.7842    2.2800 N.1     1  UNL1       -0.1907
     21 C          59.4162   89.8871    6.5636 C.2     1  UNL1        0.2402
     22 O          58.0762   89.2358    6.7378 O.2     1  UNL1       -0.2736
     23 N          60.5063   89.6388    7.5635 N.am    1  UNL1       -0.1885
     24 H          61.3858   90.0662    7.4492 H       1  UNL1        0.1762
     25 S          60.2566   88.7393    8.7376 S.O2    1  UNL1        0.0602
     26 O          59.9020   87.6197    7.8044 O.2     1  UNL1       -0.1541
     27 O          60.6111   89.8589    9.6708 O.2     1  UNL1       -0.1541
     28 C          60.0068   87.8398    9.9117 C.3     1  UNL1        0.1988
     29 C          60.9957   86.7665   10.2580 C.ar    1  UNL1        0.0032
     30 C          61.2083   86.3764   11.6907 C.ar    1  UNL1       -0.0028
     31 C          62.1972   85.3032   12.0370 C.ar    1  UNL1       -0.0045
     32 C          62.9737   84.6199   10.9506 C.ar    1  UNL1       -0.0225
     33 C          62.7612   85.0099    9.5178 C.ar    1  UNL1       -0.0045
     34 C          61.7721   86.0833    9.1716 C.ar    1  UNL1       -0.0028
     35 C          63.9627   83.5466   11.2969 C.3     1  UNL1        0.0224
     36 C          64.4306   82.5890   10.2414 C.3     1  UNL1        0.0047
     37 C          64.4838   83.4309   12.6987 C.3     1  UNL1        0.0047
@<TRIPOS>BOND
     1    17    18    1
     2    18    16    1
     3    16    14    1
     4    14    15    2
     5    14     7    1
     6     7     8   ar
     7     8     9   ar
     8     9    19    1
     9    19    20    3
    10     9    10   ar
    11    10     1    1
    12     1     2    1
    13     2     3    1
    14     3     4    1
    15     4    21    1
    16    21    22    2
    17    21    23   am
    18    23    25    1
    19    25    26    2
    20    25    27    2
    21    25    28    1
    22    28    29    1
    23    29    30   ar
    24    30    31   ar
    25    31    32   ar
    26    32    35    1
    27    35    36    1
    28    35    37    1
    29    32    33   ar
    30    33    34   ar
    31     4     5    1
    32     5     6    1
    33    10    11   ar
    34    11    12   ar
    35    12    13    1
    36    12     7   ar
    37     6     1    1
    38    34    29   ar
    39    23    24    1
@<TRIPOS>MOLECULE
*****
 37 39 0 0 0
SMALL
GASTEIGER

@<TRIPOS>ATOM
      1 N          61.3670   87.5395    9.7501 N.pl3   1  UNL1       -0.2927
      2 C          60.8128   86.8245    8.5536 C.3     1  UNL1        0.0927
      3 C          60.1692   87.6043    7.4456 C.3     1  UNL1        0.0306
      4 C          60.0797   89.0989    7.5341 C.3     1  UNL1        0.0814
      5 C          60.6339   89.8139    8.7306 C.3     1  UNL1        0.0306
      6 C          61.2775   89.0341    9.8386 C.3     1  UNL1        0.0927
      7 C          63.2980   85.2003   13.0742 C.ar    1  UNL1        0.0900
      8 C          63.3875   86.6975   13.0605 C.ar    1  UNL1        0.0207
      9 C          62.7438   87.4772   11.9525 C.ar    1  UNL1        0.1001
     10 C          62.0107   86.7597   10.8581 C.ar    1  UNL1        0.1409
     11 N          61.9212   85.2625   10.8718 N.ar    1  UNL1       -0.2341
     12 C          62.5649   84.4828   11.9798 C.ar    1  UNL1        0.0670
     13 C          62.4754   82.9854   11.9934 C.3     1  UNL1        0.0524
     14 C          63.9417   84.4205   14.1822 C.2     1  UNL1        0.3424
     15 O          65.4161   84.1467   14.1483 O.2     1  UNL1       -0.2449
     16 O          63.1110   83.9146   15.3240 O.3     1  UNL1       -0.4454
     17 C          63.1774   86.0230   16.8407 C.3     1  UNL1        0.0513
     18 C          62.4141   84.8842   16.2319 C.3     1  UNL1        0.2089
     19 C          62.8333   88.9745   11.9388 C.1     1  UNL1        0.1032
     20 N          62.9229   90.4718   11.9252 N.1     1  UNL1       -0.1907
     21 C          59.4360   89.8787    6.4261 C.2     1  UNL1        0.2402
     22 O          57.9861   89.6679    6.1046 O.2     1  UNL1       -0.2736
     23 N          60.2422   90.8692    5.6394 N.am    1  UNL1       -0.1885
     24 H          61.1939   91.0076    5.8504 H       1  UNL1        0.1762
     25 S          59.5986   91.6489    4.5314 S.O2    1  UNL1        0.0602
     26 O          58.2801   91.5708    5.2424 O.2     1  UNL1       -0.1541
     27 O          60.9170   91.7271    3.8205 O.2     1  UNL1       -0.1541
     28 C          58.9549   92.4287    3.4234 C.3     1  UNL1        0.1988
     29 C          59.7862   92.9378    2.2834 C.ar    1  UNL1        0.0032
     30 C          60.4093   94.3002    2.3593 C.ar    1  UNL1       -0.0028
     31 C          61.2406   94.8093    1.2193 C.ar    1  UNL1       -0.0045
     32 C          61.4489   93.9560    0.0033 C.ar    1  UNL1       -0.0225
     33 C          60.8259   92.5936   -0.0726 C.ar    1  UNL1       -0.0045
     34 C          59.9945   92.0845    1.0675 C.ar    1  UNL1       -0.0028
     35 C          62.2803   94.4651   -1.1367 C.3     1  UNL1        0.0224
     36 C          63.1642   95.6617   -0.9446 C.3     1  UNL1        0.0047
     37 C          62.2277   93.7776   -2.4689 C.3     1  UNL1        0.0047
@<TRIPOS>BOND
     1    17    18    1
     2    18    16    1
     3    16    14    1
     4    14    15    2
     5    14     7    1
     6     7     8   ar
     7     8     9   ar
     8     9    19    1
     9    19    20    3
    10     9    10   ar
    11    10     1    1
    12     1     2    1
    13     2     3    1
    14     3     4    1
    15     4    21    1
    16    21    22    2
    17    21    23   am
    18    23    25    1
    19    25    26    2
    20    25    27    2
    21    25    28    1
    22    28    29    1
    23    29    30   ar
    24    30    31   ar
    25    31    32   ar
    26    32    35    1
    27    35    36    1
    28    35    37    1
    29    32    33   ar
    30    33    34   ar
    31     4     5    1
    32     5     6    1
    33    10    11   ar
    34    11    12   ar
    35    12    13    1
    36    12     7   ar
    37     6     1    1
    38    34    29   ar
    39    23    24    1
@<TRIPOS>MOLECULE
*****
 37 39 0 0 0
SMALL
GASTEIGER

@<TRIPOS>ATOM
      1 N          61.2858   86.7785    9.4883 N.pl3   1  UNL1       -0.2927
      2 C          60.4114   86.2878    8.3727 C.3     1  UNL1        0.0927
      3 C          59.7747   87.2678    7.4323 C.3     1  UNL1        0.0306
      4 C          60.0124   88.7384    7.6075 C.3     1  UNL1        0.0814
      5 C          60.8868   89.2291    8.7231 C.3     1  UNL1        0.0306
      6 C          61.5235   88.2491    9.6635 C.3     1  UNL1        0.0927
      7 C          63.1960   83.8387   12.3094 C.ar    1  UNL1        0.0900
      8 C          63.4237   83.7167   10.8318 C.ar    1  UNL1        0.0207
      9 C          62.7869   84.6967    9.8915 C.ar    1  UNL1        0.1001
     10 C          61.9226   85.7986   10.4287 C.ar    1  UNL1        0.1409
     11 N          61.6949   85.9206   11.9062 N.ar    1  UNL1       -0.2341
     12 C          62.3317   84.9406   12.8466 C.ar    1  UNL1        0.0670
     13 C          62.1040   85.0627   14.3242 C.3     1  UNL1        0.0524
     14 C          63.8328   82.8588   13.2498 C.2     1  UNL1        0.3424
     15 O          64.6432   83.3522   14.4115 O.2     1  UNL1       -0.2449
     16 O          63.6591   81.3855   13.0284 O.3     1  UNL1       -0.4454
     17 C          61.3131   81.1259   14.1143 C.3     1  UNL1        0.0513
     18 C          62.2846   80.7847   13.0235 C.3     1  UNL1        0.2089
     19 C          63.0146   84.5746    8.4138 C.1     1  UNL1        0.1032
     20 N          63.2423   84.4526    6.9363 N.1     1  UNL1       -0.1907
     21 C          59.3756   89.7183    6.6671 C.2     1  UNL1        0.2402
     22 O          57.8898   89.9227    6.6898 O.2     1  UNL1       -0.2736
     23 N          60.2247   90.4939    5.7041 N.am    1  UNL1       -0.1885
     24 H          61.1999   90.3598    5.6892 H       1  UNL1        0.1762
     25 S          59.5880   91.4738    4.7637 S.O2    1  UNL1        0.0602
     26 O          60.9458   91.9545    4.3452 O.2     1  UNL1       -0.1541
     27 O          58.2301   90.9931    5.1822 O.2     1  UNL1       -0.1541
     28 C          58.9512   92.4537    3.8234 C.3     1  UNL1        0.1988
     29 C          59.6955   92.9176    2.6065 C.ar    1  UNL1        0.0032
     30 C          59.8731   91.9936    1.4384 C.ar    1  UNL1       -0.0028
     31 C          60.6174   92.4575    0.2215 C.ar    1  UNL1       -0.0045
     32 C          61.1841   93.8455    0.1727 C.ar    1  UNL1       -0.0225
     33 C          61.0064   94.7696    1.3408 C.ar    1  UNL1       -0.0045
     34 C          60.2621   94.3056    2.5577 C.ar    1  UNL1       -0.0028
     35 C          61.9284   94.3094   -1.0442 C.3     1  UNL1        0.0224
     36 C          63.0626   95.2809   -0.9045 C.3     1  UNL1        0.0047
     37 C          61.5383   93.8017   -2.4008 C.3     1  UNL1        0.0047
@<TRIPOS>BOND
     1    17    18    1
     2    18    16    1
     3    16    14    1
     4    14    15    2
     5    14     7    1
     6     7     8   ar
     7     8     9   ar
     8     9    19    1
     9    19    20    3
    10     9    10   ar
    11    10     1    1
    12     1     2    1
    13     2     3    1
    14     3     4    1
    15     4    21    1
    16    21    22    2
    17    21    23   am
    18    23    25    1
    19    25    26    2
    20    25    27    2
    21    25    28    1
    22    28    29    1
    23    29    30   ar
    24    30    31   ar
    25    31    32   ar
    26    32    35    1
    27    35    36    1
    28    35    37    1
    29    32    33   ar
    30    33    34   ar
    31     4     5    1
    32     5     6    1
    33    10    11   ar
    34    11    12   ar
    35    12    13    1
    36    12     7   ar
    37     6     1    1
    38    34    29   ar
    39    23    24    1
