@<TRIPOS>MOLECULE
*****
 26 28 0 0 0
SMALL
GASTEIGER

@<TRIPOS>ATOM
      1 C          62.8627   87.6454   12.0600 C.ar    1  UNL1        0.1344
      2 C          62.1793   87.5938   10.7257 C.ar    1  UNL1        0.0345
      3 C          61.7203   86.2790   10.1685 C.ar    1  UNL1        0.0045
      4 C          61.9447   85.0157   10.9456 C.ar    1  UNL1        0.0208
      5 C          62.6282   85.0673   12.2798 C.ar    1  UNL1        0.1000
      6 N          63.0871   86.3821   12.8370 N.ar    1  UNL1       -0.2290
      7 C          62.8526   83.8040   13.0568 C.ar    1  UNL1        0.0983
      8 C          62.6233   83.6212   14.5279 C.ar    1  UNL1        0.1193
      9 N          62.9747   82.2060   14.8795 N.ar    1  UNL1       -0.2223
     10 C          63.4212   81.5141   13.6257 C.ar    1  UNL1        0.1785
     11 N          63.3457   82.5018   12.4992 N.ar    1  UNL1       -0.3097
     12 C          63.7010   82.2341   11.0667 C.3     1  UNL1        0.0871
     13 C          63.1180   81.0473   10.3585 C.3     1  UNL1        0.0245
     14 C          64.6394   83.1533   10.3423 C.3     1  UNL1        0.0245
     15 C          64.1796   88.9951   13.8472 C.2     1  UNL1        0.2567
     16 O          64.5784   87.7152   14.5200 O.2     1  UNL1       -0.2696
     17 N          63.3217   88.9603   12.6172 N.am    1  UNL1       -0.2656
     18 H          63.0600   89.8004   12.1757 H       1  UNL1        0.1566
     19 C          64.1143   90.9739   15.6431 C.ar    1  UNL1        0.2478
     20 N          64.8542   92.2660   15.8251 N.ar    1  UNL1       -0.1313
     21 N          65.8358   92.4006   14.6988 N.ar    1  UNL1       -0.2443
     22 C          66.7841   93.5434   14.4877 C.3     1  UNL1        0.1539
     23 C          65.7026   91.1917   13.8208 C.ar    1  UNL1        0.1045
     24 C          64.6386   90.3100   14.4045 C.ar    1  UNL1        0.1268
     25 C          63.0715   89.0053   16.9799 C.3     1  UNL1        0.2543
     26 O          63.0389   90.4396   16.5420 O.3     1  UNL1       -0.4551
@<TRIPOS>BOND
     1    25    26    1
     2    26    19    1
     3    19    20   ar
     4    20    21   ar
     5    21    22    1
     6    21    23   ar
     7    23    24   ar
     8    24    15    1
     9    15    16    2
    10    15    17   am
    11    17     1    1
    12     1     2   ar
    13     2     3   ar
    14     3     4   ar
    15     4     5   ar
    16     5     7    1
    17     7     8   ar
    18     8     9   ar
    19     9    10   ar
    20    10    11   ar
    21    11    12    1
    22    12    13    1
    23    12    14    1
    24     5     6   ar
    25    24    19   ar
    26     6     1   ar
    27    11     7   ar
    28    17    18    1
@<TRIPOS>MOLECULE
*****
 26 28 0 0 0
SMALL
GASTEIGER

@<TRIPOS>ATOM
      1 C          62.4527   88.3473   11.7984 C.ar    1  UNL1        0.1344
      2 C          61.1280   88.4740   11.1063 C.ar    1  UNL1        0.0345
      3 C          60.5129   87.2793   10.4397 C.ar    1  UNL1        0.0045
      4 C          61.2224   85.9580   10.4652 C.ar    1  UNL1        0.0208
      5 C          62.5471   85.8313   11.1573 C.ar    1  UNL1        0.1000
      6 N          63.1623   87.0260   11.8239 N.ar    1  UNL1       -0.2290
      7 C          63.2567   84.5100   11.1828 C.ar    1  UNL1        0.0983
      8 C          63.6326   83.6878    9.9859 C.ar    1  UNL1        0.1193
      9 N          64.3231   82.4485   10.4730 N.ar    1  UNL1       -0.2223
     10 C          64.3741   82.5048   11.9711 C.ar    1  UNL1        0.1785
     11 N          63.7150   83.7789   12.4098 N.ar    1  UNL1       -0.3097
     12 C          63.5441   84.2407   13.8266 C.3     1  UNL1        0.0871
     13 C          62.2050   84.1343   14.4939 C.3     1  UNL1        0.0245
     14 C          64.7126   84.8089   14.5764 C.3     1  UNL1        0.0245
     15 C          63.9171   89.3636   13.6886 C.2     1  UNL1        0.2567
     16 O          64.1511   87.9906   14.2455 O.2     1  UNL1       -0.2696
     17 N          63.0679   89.5419   12.4651 N.am    1  UNL1       -0.2656
     18 H          62.9144   90.4431   12.0995 H       1  UNL1        0.1566
     19 C          64.1542   91.1111   15.6974 C.ar    1  UNL1        0.2478
     20 N          65.0218   92.3043   15.9684 N.ar    1  UNL1       -0.1313
     21 N          65.9363   92.4889   14.7937 N.ar    1  UNL1       -0.2443
     22 C          66.9715   93.5639   14.6426 C.3     1  UNL1        0.1539
     23 C          65.6337   91.4097   13.7967 C.ar    1  UNL1        0.1045
     24 C          64.5323   90.5583   14.3552 C.ar    1  UNL1        0.1268
     25 C          63.1063   89.1157   16.9897 C.3     1  UNL1        0.2543
     26 O          63.0944   90.5664   16.6085 O.3     1  UNL1       -0.4551
@<TRIPOS>BOND
     1    25    26    1
     2    26    19    1
     3    19    20   ar
     4    20    21   ar
     5    21    22    1
     6    21    23   ar
     7    23    24   ar
     8    24    15    1
     9    15    16    2
    10    15    17   am
    11    17     1    1
    12     1     2   ar
    13     2     3   ar
    14     3     4   ar
    15     4     5   ar
    16     5     7    1
    17     7     8   ar
    18     8     9   ar
    19     9    10   ar
    20    10    11   ar
    21    11    12    1
    22    12    13    1
    23    12    14    1
    24     5     6   ar
    25    24    19   ar
    26     6     1   ar
    27    11     7   ar
    28    17    18    1
@<TRIPOS>MOLECULE
*****
 26 28 0 0 0
SMALL
GASTEIGER

@<TRIPOS>ATOM
      1 C          63.1587   88.3958   12.1293 C.ar    1  UNL1        0.1344
      2 C          62.5643   88.9494   10.8683 C.ar    1  UNL1        0.0345
      3 C          62.7678   90.3926   10.5140 C.ar    1  UNL1        0.0045
      4 C          63.5656   91.2823   11.4207 C.ar    1  UNL1        0.0208
      5 C          64.1599   90.7286   12.6817 C.ar    1  UNL1        0.1000
      6 N          63.9564   89.2854   13.0360 N.ar    1  UNL1       -0.2290
      7 C          64.9577   91.6182   13.5884 C.ar    1  UNL1        0.0983
      8 C          64.9043   91.6249   15.0874 C.ar    1  UNL1        0.1193
      9 N          65.8625   92.6682   15.5808 N.ar    1  UNL1       -0.2223
     10 C          66.5082   93.3063   14.3866 C.ar    1  UNL1        0.1785
     11 N          65.9489   92.6574   13.1553 N.ar    1  UNL1       -0.3097
     12 C          66.3164   92.9894   11.7394 C.3     1  UNL1        0.0871
     13 C          65.6722   94.1560   11.0511 C.3     1  UNL1        0.0245
     14 C          67.3283   92.1546   11.0117 C.3     1  UNL1        0.0245
     15 C          63.6243   86.3764   13.6963 C.2     1  UNL1        0.2567
     16 O          64.4968   87.2436   14.5546 O.2     1  UNL1       -0.2696
     17 N          62.9552   86.9524   12.4836 N.am    1  UNL1       -0.2656
     18 H          62.3826   86.3832   11.9203 H       1  UNL1        0.1566
     19 C          62.6512   84.4145   15.2290 C.ar    1  UNL1        0.2478
     20 N          62.7060   82.9159   15.1955 N.ar    1  UNL1       -0.1313
     21 N          63.5097   82.5082   13.9962 N.ar    1  UNL1       -0.2443
     22 C          63.8174   81.1010   13.5780 C.3     1  UNL1        0.1539
     23 C          63.9514   83.7550   13.2886 C.ar    1  UNL1        0.1045
     24 C          63.4208   84.9330   14.0506 C.ar    1  UNL1        0.1268
     25 C          62.7465   86.0071   17.2796 C.3     1  UNL1        0.2543
     26 O          61.9498   85.2482   16.2600 O.3     1  UNL1       -0.4551
@<TRIPOS>BOND
     1    25    26    1
     2    26    19    1
     3    19    20   ar
     4    20    21   ar
     5    21    22    1
     6    21    23   ar
     7    23    24   ar
     8    24    15    1
     9    15    16    2
    10    15    17   am
    11    17     1    1
    12     1     2   ar
    13     2     3   ar
    14     3     4   ar
    15     4     5   ar
    16     5     7    1
    17     7     8   ar
    18     8     9   ar
    19     9    10   ar
    20    10    11   ar
    21    11    12    1
    22    12    13    1
    23    12    14    1
    24     5     6   ar
    25    24    19   ar
    26     6     1   ar
    27    11     7   ar
    28    17    18    1
@<TRIPOS>MOLECULE
*****
 26 28 0 0 0
SMALL
GASTEIGER

@<TRIPOS>ATOM
      1 C          64.3513   90.9605   12.5925 C.ar    1  UNL1        0.1344
      2 C          64.7396   91.0687   14.0373 C.ar    1  UNL1        0.0345
      3 C          65.6335   92.1841   14.4920 C.ar    1  UNL1        0.0045
      4 C          66.1390   93.1912   13.5021 C.ar    1  UNL1        0.0208
      5 C          65.7507   93.0830   12.0573 C.ar    1  UNL1        0.1000
      6 N          64.8568   91.9677   11.6025 N.ar    1  UNL1       -0.2290
      7 C          66.2562   94.0902   11.0673 C.ar    1  UNL1        0.0983
      8 C          65.7400   95.4872   10.8890 C.ar    1  UNL1        0.1193
      9 N          66.5315   96.1376    9.7933 N.ar    1  UNL1       -0.2223
     10 C          67.5369   95.1425    9.2944 C.ar    1  UNL1        0.1785
     11 N          67.3667   93.8772   10.0817 N.ar    1  UNL1       -0.3097
     12 C          68.1667   92.6195    9.9131 C.3     1  UNL1        0.0871
     13 C          68.6928   92.2410    8.5604 C.3     1  UNL1        0.0245
     14 C          68.4406   91.7404   11.0973 C.3     1  UNL1        0.0245
     15 C          62.7395   89.9472   10.8245 C.2     1  UNL1        0.2567
     16 O          62.9156   91.1647    9.9662 O.2     1  UNL1       -0.2696
     17 N          63.4573   89.8451   12.1376 N.am    1  UNL1       -0.2656
     18 H          63.3418   89.0460   12.7009 H       1  UNL1        0.1566
     19 C          61.8381   87.4321   10.9089 C.ar    1  UNL1        0.2478
     20 N          60.7901   86.6556   10.1682 N.ar    1  UNL1       -0.1313
     21 N          60.1498   87.5754    9.1711 N.ar    1  UNL1       -0.2443
     22 C          59.0503   87.2136    8.2171 C.3     1  UNL1        0.1539
     23 C          60.8022   88.9204    9.2956 C.ar    1  UNL1        0.1045
     24 C          61.8456   88.8318   10.3697 C.ar    1  UNL1        0.1268
     25 C          62.7634   85.4298   12.2816 C.3     1  UNL1        0.2543
     26 O          62.7233   86.9021   11.9978 O.3     1  UNL1       -0.4551
@<TRIPOS>BOND
     1    25    26    1
     2    26    19    1
     3    19    20   ar
     4    20    21   ar
     5    21    22    1
     6    21    23   ar
     7    23    24   ar
     8    24    15    1
     9    15    16    2
    10    15    17   am
    11    17     1    1
    12     1     2   ar
    13     2     3   ar
    14     3     4   ar
    15     4     5   ar
    16     5     7    1
    17     7     8   ar
    18     8     9   ar
    19     9    10   ar
    20    10    11   ar
    21    11    12    1
    22    12    13    1
    23    12    14    1
    24     5     6   ar
    25    24    19   ar
    26     6     1   ar
    27    11     7   ar
    28    17    18    1
@<TRIPOS>MOLECULE
*****
 26 28 0 0 0
SMALL
GASTEIGER

@<TRIPOS>ATOM
      1 C          61.7293   87.3617   11.2509 C.ar    1  UNL1        0.1344
      2 C          60.3671   87.9318   10.9871 C.ar    1  UNL1        0.0345
      3 C          60.0847   89.3725   11.2943 C.ar    1  UNL1        0.0045
      4 C          61.1644   90.2432   11.8655 C.ar    1  UNL1        0.0208
      5 C          62.5265   89.6732   12.1293 C.ar    1  UNL1        0.1000
      6 N          62.8089   88.2324   11.8220 N.ar    1  UNL1       -0.2290
      7 C          63.6062   90.5439   12.7004 C.ar    1  UNL1        0.0983
      8 C          64.2135   91.7446   12.0375 C.ar    1  UNL1        0.1193
      9 N          65.2508   92.3095   12.9621 N.ar    1  UNL1       -0.2223
     10 C          65.2845   91.4580   14.1965 C.ar    1  UNL1        0.1785
     11 N          64.2681   90.3668   14.0348 N.ar    1  UNL1       -0.3097
     12 C          63.9666   89.2878   15.0323 C.3     1  UNL1        0.0871
     13 C          63.1652   89.6042   16.2600 C.3     1  UNL1        0.0245
     14 C          64.4666   87.8924   14.8019 C.3     1  UNL1        0.0245
     15 C          62.4948   85.0036   12.0276 C.2     1  UNL1        0.2567
     16 O          62.6953   85.5270   13.4190 O.2     1  UNL1       -0.2696
     17 N          62.0117   85.9209   10.9436 N.am    1  UNL1       -0.2656
     18 H          61.8801   85.5774   10.0304 H       1  UNL1        0.1566
     19 C          63.4922   83.0435   10.5082 C.ar    1  UNL1        0.2478
     20 N          63.5512   81.5482   10.6100 N.ar    1  UNL1       -0.1313
     21 N          62.8727   81.1432   11.8851 N.ar    1  UNL1       -0.2443
     22 C          62.7025   79.7396   12.3860 C.3     1  UNL1        0.1539
     23 C          62.3944   82.3884   12.5714 C.ar    1  UNL1        0.1045
     24 C          62.7773   83.5628   11.7204 C.ar    1  UNL1        0.1268
     25 C          63.1235   84.5534    8.4263 C.3     1  UNL1        0.2543
     26 O          64.0501   83.8739    9.3906 O.3     1  UNL1       -0.4551
@<TRIPOS>BOND
     1    25    26    1
     2    26    19    1
     3    19    20   ar
     4    20    21   ar
     5    21    22    1
     6    21    23   ar
     7    23    24   ar
     8    24    15    1
     9    15    16    2
    10    15    17   am
    11    17     1    1
    12     1     2   ar
    13     2     3   ar
    14     3     4   ar
    15     4     5   ar
    16     5     7    1
    17     7     8   ar
    18     8     9   ar
    19     9    10   ar
    20    10    11   ar
    21    11    12    1
    22    12    13    1
    23    12    14    1
    24     5     6   ar
    25    24    19   ar
    26     6     1   ar
    27    11     7   ar
    28    17    18    1
@<TRIPOS>MOLECULE
*****
 26 28 0 0 0
SMALL
GASTEIGER

@<TRIPOS>ATOM
      1 C          63.9714   86.8952   14.9680 C.ar    1  UNL1        0.1344
      2 C          63.3724   86.8352   16.3419 C.ar    1  UNL1        0.0345
      3 C          62.6944   85.5819   16.8103 C.ar    1  UNL1        0.0045
      4 C          62.6155   84.3885   15.9049 C.ar    1  UNL1        0.0208
      5 C          63.2145   84.4485   14.5311 C.ar    1  UNL1        0.1000
      6 N          63.8925   85.7019   14.0626 N.ar    1  UNL1       -0.2290
      7 C          63.1356   83.2552   13.6257 C.ar    1  UNL1        0.0983
      8 C          63.2831   81.8216   14.0416 C.ar    1  UNL1        0.1193
      9 N          63.1340   80.9663   12.8184 N.ar    1  UNL1       -0.2223
     10 C          62.8942   81.8713   11.6464 C.ar    1  UNL1        0.1785
     11 N          62.8952   83.2859   12.1454 N.ar    1  UNL1       -0.3097
     12 C          62.6915   84.5154   11.3106 C.3     1  UNL1        0.0871
     13 C          61.7938   85.6134   11.7989 C.3     1  UNL1        0.0245
     14 C          63.3856   84.6469    9.9873 C.3     1  UNL1        0.0245
     15 C          63.9360   89.4651   14.5877 C.2     1  UNL1        0.2567
     16 O          62.5446   89.5283   15.1445 O.2     1  UNL1       -0.2696
     17 N          64.6494   88.1486   14.4995 N.am    1  UNL1       -0.2656
     18 H          65.5626   88.1071   14.1341 H       1  UNL1        0.1566
     19 C          64.4428   91.3643   12.7763 C.ar    1  UNL1        0.2478
     20 N          65.3052   92.5910   12.7385 N.ar    1  UNL1       -0.1313
     21 N          66.0096   92.7032   14.0581 N.ar    1  UNL1       -0.2443
     22 C          66.9720   93.7832   14.4547 C.3     1  UNL1        0.1539
     23 C          65.5824   91.5459   14.9115 C.ar    1  UNL1        0.1045
     24 C          64.6140   90.7184   14.1192 C.ar    1  UNL1        0.1268
     25 C          63.5149   91.6098   10.3620 C.3     1  UNL1        0.2543
     26 O          63.5634   90.8702   11.6661 O.3     1  UNL1       -0.4551
@<TRIPOS>BOND
     1    25    26    1
     2    26    19    1
     3    19    20   ar
     4    20    21   ar
     5    21    22    1
     6    21    23   ar
     7    23    24   ar
     8    24    15    1
     9    15    16    2
    10    15    17   am
    11    17     1    1
    12     1     2   ar
    13     2     3   ar
    14     3     4   ar
    15     4     5   ar
    16     5     7    1
    17     7     8   ar
    18     8     9   ar
    19     9    10   ar
    20    10    11   ar
    21    11    12    1
    22    12    13    1
    23    12    14    1
    24     5     6   ar
    25    24    19   ar
    26     6     1   ar
    27    11     7   ar
    28    17    18    1
@<TRIPOS>MOLECULE
*****
 26 28 0 0 0
SMALL
GASTEIGER

@<TRIPOS>ATOM
      1 C          63.5692   86.7292   15.1331 C.ar    1  UNL1        0.1344
      2 C          63.1712   87.1039   16.5299 C.ar    1  UNL1        0.0345
      3 C          63.1394   88.5467   16.9392 C.ar    1  UNL1        0.0045
      4 C          63.5057   89.6146   15.9516 C.ar    1  UNL1        0.0208
      5 C          63.9037   89.2399   14.5548 C.ar    1  UNL1        0.1000
      6 N          63.9355   87.7972   14.1456 N.ar    1  UNL1       -0.2290
      7 C          64.2700   90.3079   13.5673 C.ar    1  UNL1        0.0983
      8 C          65.3816   91.3038   13.7174 C.ar    1  UNL1        0.1193
      9 N          65.3876   92.1790   12.4991 N.ar    1  UNL1       -0.2223
     10 C          64.2797   91.7239   11.5961 C.ar    1  UNL1        0.1785
     11 N          63.5890   90.5675   12.2562 N.ar    1  UNL1       -0.3097
     12 C          62.4222   89.8047   11.7025 C.3     1  UNL1        0.0871
     13 C          61.0689   89.9409   12.3349 C.3     1  UNL1        0.0245
     14 C          62.6087   88.9056   10.5163 C.3     1  UNL1        0.0245
     15 C          62.9613   84.8578   13.4366 C.2     1  UNL1        0.2567
     16 O          62.2897   85.8718   12.5587 O.2     1  UNL1       -0.2696
     17 N          63.6010   85.2865   14.7238 N.am    1  UNL1       -0.2656
     18 H          64.0418   84.6209   15.3000 H       1  UNL1        0.1566
     19 C          63.5974   82.8690   11.7677 C.ar    1  UNL1        0.2478
     20 N          63.4040   81.3815   11.7676 N.ar    1  UNL1       -0.1313
     21 N          62.6800   81.0082   13.0273 N.ar    1  UNL1       -0.2443
     22 C          62.2802   79.6216   13.4365 C.3     1  UNL1        0.1539
     23 C          62.4261   82.2650   13.8058 C.ar    1  UNL1        0.1045
     24 C          62.9931   83.4150   13.0273 C.ar    1  UNL1        0.1268
     25 C          63.5016   84.1225    9.4940 C.3     1  UNL1        0.2543
     26 O          64.2761   83.6698   10.6963 O.3     1  UNL1       -0.4551
@<TRIPOS>BOND
     1    25    26    1
     2    26    19    1
     3    19    20   ar
     4    20    21   ar
     5    21    22    1
     6    21    23   ar
     7    23    24   ar
     8    24    15    1
     9    15    16    2
    10    15    17   am
    11    17     1    1
    12     1     2   ar
    13     2     3   ar
    14     3     4   ar
    15     4     5   ar
    16     5     7    1
    17     7     8   ar
    18     8     9   ar
    19     9    10   ar
    20    10    11   ar
    21    11    12    1
    22    12    13    1
    23    12    14    1
    24     5     6   ar
    25    24    19   ar
    26     6     1   ar
    27    11     7   ar
    28    17    18    1
@<TRIPOS>MOLECULE
*****
 26 28 0 0 0
SMALL
GASTEIGER

@<TRIPOS>ATOM
      1 C          63.6728   87.0286   14.9721 C.ar    1  UNL1        0.1344
      2 C          63.2824   87.3913   16.3742 C.ar    1  UNL1        0.0345
      3 C          63.2571   88.8302   16.7973 C.ar    1  UNL1        0.0045
      4 C          63.6222   89.9063   15.8182 C.ar    1  UNL1        0.0208
      5 C          64.0126   89.5436   14.4161 C.ar    1  UNL1        0.1000
      6 N          64.0379   88.1048   13.9930 N.ar    1  UNL1       -0.2290
      7 C          64.3777   90.6198   13.4370 C.ar    1  UNL1        0.0983
      8 C          63.7798   90.8123   12.0748 C.ar    1  UNL1        0.1193
      9 N          64.4373   92.0039   11.4441 N.ar    1  UNL1       -0.2223
     10 C          65.4416   92.5478   12.4165 C.ar    1  UNL1        0.1785
     11 N          65.4047   91.6924   13.6481 N.ar    1  UNL1       -0.3097
     12 C          66.2471   91.8772   14.8755 C.3     1  UNL1        0.0871
     13 C          67.6825   91.4422   14.8724 C.3     1  UNL1        0.0245
     14 C          65.6538   92.4971   16.1059 C.3     1  UNL1        0.0245
     15 C          63.0612   85.1771   13.2552 C.2     1  UNL1        0.2567
     16 O          62.3989   86.2033   12.3844 O.2     1  UNL1       -0.2696
     17 N          63.6982   85.5897   14.5490 N.am    1  UNL1       -0.2656
     18 H          64.1328   84.9162   15.1205 H       1  UNL1        0.1566
     19 C          63.5821   83.2145   11.5167 C.ar    1  UNL1        0.2478
     20 N          63.4226   81.7230   11.5218 N.ar    1  UNL1       -0.1313
     21 N          62.8284   81.3249   12.8403 N.ar    1  UNL1       -0.2443
     22 C          62.4996   79.9268   13.2730 C.3     1  UNL1        0.1539
     23 C          62.6207   82.5704   13.6502 C.ar    1  UNL1        0.1045
     24 C          63.0865   83.7382   12.8321 C.ar    1  UNL1        0.1268
     25 C          63.2331   84.5344    9.3063 C.3     1  UNL1        0.2543
     26 O          64.1394   84.0378   10.3936 O.3     1  UNL1       -0.4551
@<TRIPOS>BOND
     1    25    26    1
     2    26    19    1
     3    19    20   ar
     4    20    21   ar
     5    21    22    1
     6    21    23   ar
     7    23    24   ar
     8    24    15    1
     9    15    16    2
    10    15    17   am
    11    17     1    1
    12     1     2   ar
    13     2     3   ar
    14     3     4   ar
    15     4     5   ar
    16     5     7    1
    17     7     8   ar
    18     8     9   ar
    19     9    10   ar
    20    10    11   ar
    21    11    12    1
    22    12    13    1
    23    12    14    1
    24     5     6   ar
    25    24    19   ar
    26     6     1   ar
    27    11     7   ar
    28    17    18    1
@<TRIPOS>MOLECULE
*****
 26 28 0 0 0
SMALL
GASTEIGER

@<TRIPOS>ATOM
      1 C          62.8598   88.1967   11.6816 C.ar    1  UNL1        0.1344
      2 C          62.5598   89.0321   10.4724 C.ar    1  UNL1        0.0345
      3 C          62.7803   90.5153   10.5121 C.ar    1  UNL1        0.0045
      4 C          63.3009   91.1630   11.7609 C.ar    1  UNL1        0.0208
      5 C          63.6009   90.3276   12.9700 C.ar    1  UNL1        0.1000
      6 N          63.3804   88.8445   12.9304 N.ar    1  UNL1       -0.2290
      7 C          64.1214   90.9754   14.2188 C.ar    1  UNL1        0.0983
      8 C          63.5219   90.8577   15.5888 C.ar    1  UNL1        0.1193
      9 N          64.3628   91.6641   16.5335 N.ar    1  UNL1       -0.2223
     10 C          65.4820   92.2802   15.7475 C.ar    1  UNL1        0.1785
     11 N          65.3328   91.8545   14.3169 N.ar    1  UNL1       -0.3097
     12 C          66.2364   92.2402   13.1835 C.3     1  UNL1        0.0871
     13 C          67.6509   91.7425   13.1492 C.3     1  UNL1        0.0245
     14 C          65.7254   93.1237   12.0842 C.3     1  UNL1        0.0245
     15 C          63.1579   85.8483   12.7521 C.2     1  UNL1        0.2567
     16 O          63.8969   86.4662   13.9019 O.2     1  UNL1       -0.2696
     17 N          62.6393   86.7135   11.6420 N.am    1  UNL1       -0.2656
     18 H          62.1543   86.3079   10.8873 H       1  UNL1        0.1566
     19 C          63.3240   83.4458   11.5920 C.ar    1  UNL1        0.2478
     20 N          62.9171   82.0533   11.9735 N.ar    1  UNL1       -0.1313
     21 N          62.2789   82.1120   13.3297 N.ar    1  UNL1       -0.2443
     22 C          61.7255   80.9466   14.0949 C.3     1  UNL1        0.1539
     23 C          62.2915   83.5408   13.7865 C.ar    1  UNL1        0.1045
     24 C          62.9374   84.3650   12.7125 C.ar    1  UNL1        0.1268
     25 C          63.1935   84.4342    9.1928 C.3     1  UNL1        0.2543
     26 O          63.9991   83.8483   10.3145 O.3     1  UNL1       -0.4551
@<TRIPOS>BOND
     1    25    26    1
     2    26    19    1
     3    19    20   ar
     4    20    21   ar
     5    21    22    1
     6    21    23   ar
     7    23    24   ar
     8    24    15    1
     9    15    16    2
    10    15    17   am
    11    17     1    1
    12     1     2   ar
    13     2     3   ar
    14     3     4   ar
    15     4     5   ar
    16     5     7    1
    17     7     8   ar
    18     8     9   ar
    19     9    10   ar
    20    10    11   ar
    21    11    12    1
    22    12    13    1
    23    12    14    1
    24     5     6   ar
    25    24    19   ar
    26     6     1   ar
    27    11     7   ar
    28    17    18    1
