@<TRIPOS>MOLECULE
*****
 31 33 0 0 0
SMALL
GASTEIGER

@<TRIPOS>ATOM
      1 C          63.2688   90.6100   13.3243 C.ar    1  UNL1        0.2472
      2 N          64.3683   91.6128   13.5122 N.ar    1  UNL1       -0.1934
      3 C          64.9595   92.3093   12.3226 C.ar    1  UNL1        0.1580
      4 C          64.4512   92.0030   10.9450 C.ar    1  UNL1        0.1337
      5 N          63.3517   91.0002   10.7571 N.ar    1  UNL1       -0.2333
      6 C          62.7605   90.3037   11.9467 C.ar    1  UNL1        0.1689
      7 C          63.4332   89.8686   15.8089 C.3     1  UNL1        0.2543
      8 O          62.6775   89.9134   14.5140 O.3     1  UNL1       -0.4550
      9 C          61.6609   89.3008   11.7587 C.2     1  UNL1        0.1950
     10 O          60.3088   89.5490   12.3586 O.2     1  UNL1       -0.2896
     11 C          61.9137   88.0496   10.9709 C.3     1  UNL1        0.0692
     12 C          62.0305   87.3472    9.6507 C.3     1  UNL1        0.0141
     13 C          62.2345   86.5850   10.9264 C.3     1  UNL1        0.0443
     14 C          62.5376   85.2994   11.6373 C.2     1  UNL1        0.0504
     15 O          63.0580   84.1216   10.8678 O.co2   1  UNL1       -0.5492
     16 O          62.3204   85.1916   13.1175 O.co2   1  UNL1       -0.5492
     17 N          66.0590   93.3122   12.5106 N.pl3   1  UNL1       -0.2665
     18 C          66.5356   94.1296   11.3467 C.ar    1  UNL1        0.0815
     19 C          67.1604   93.4545   10.1618 C.ar    1  UNL1        0.0308
     20 C          67.6370   94.2719    8.9979 C.ar    1  UNL1        0.0864
     21 CL         68.2618   93.5968    7.8131 Cl      1  UNL1       -0.0799
     22 C          67.4889   95.7644    9.0188 C.ar    1  UNL1        0.1529
     23 F          67.9655   96.5818    7.8550 F       1  UNL1       -0.2032
     24 C          66.8641   96.4396   10.2037 C.ar    1  UNL1        0.0614
     25 C          66.3875   95.6222   11.3676 C.ar    1  UNL1        0.1559
     26 F          65.7627   96.2973   12.5525 F       1  UNL1       -0.2028
     27 C          66.6819   93.4977   13.8625 C.3     1  UNL1        0.1294
     28 C          67.2508   92.3184   14.5943 C.3     1  UNL1        0.1524
     29 C          66.4829   92.7098   15.8219 C.3     1  UNL1        0.0371
     30 C          68.0186   91.9269   13.3666 C.3     1  UNL1        0.0371
     31 F          67.8197   91.1390   15.3262 F       1  UNL1       -0.2382
@<TRIPOS>UNITY_ATOM_ATTR
15 1
charge -1
@<TRIPOS>BOND
     1     7     8    1
     2     8     1    1
     3     1     2   ar
     4     2     3   ar
     5     3    17    1
     6    17    27    1
     7    27    28    1
     8    28    29    1
     9    28    30    1
    10    28    31    1
    11    17    18    1
    12    18    19   ar
    13    19    20   ar
    14    20    21    1
    15    20    22   ar
    16    22    23    1
    17    22    24   ar
    18    24    25   ar
    19    25    26    1
    20     3     4   ar
    21     4     5   ar
    22     5     6   ar
    23     6     9    1
    24     9    10    2
    25    11     9    1
    26    11    12    1
    27    12    13    1
    28    13    14    1
    29    14    15   ar
    30    14    16   ar
    31     6     1   ar
    32    13    11    1
    33    25    18   ar
@<TRIPOS>MOLECULE
*****
 31 33 0 0 0
SMALL
GASTEIGER

@<TRIPOS>ATOM
      1 C          63.1776   90.6186   13.2139 C.ar    1  UNL1        0.2472
      2 N          64.3070   91.5870   13.4053 N.ar    1  UNL1       -0.1934
      3 C          64.8715   92.3232   12.2267 C.ar    1  UNL1        0.1580
      4 C          64.3067   92.0911   10.8567 C.ar    1  UNL1        0.1337
      5 N          63.1773   91.1228   10.6653 N.ar    1  UNL1       -0.2333
      6 C          62.6127   90.3865   11.8439 C.ar    1  UNL1        0.1689
      7 C          63.4298   89.7266   15.6410 C.3     1  UNL1        0.2543
      8 O          62.6130   89.8823   14.3926 O.3     1  UNL1       -0.4550
      9 C          61.4833   89.4181   11.6525 C.2     1  UNL1        0.1950
     10 O          60.3540   89.3784   12.6389 O.2     1  UNL1       -0.2896
     11 C          61.4831   88.4894   10.4745 C.3     1  UNL1        0.0692
     12 C          62.1244   87.3799    9.6950 C.3     1  UNL1        0.0141
     13 C          60.8416   87.9905    9.2138 C.3     1  UNL1        0.0443
     14 C          59.7306   88.0549    8.2081 C.2     1  UNL1        0.0504
     15 O          59.6486   89.2095    7.2540 O.co2   1  UNL1       -0.5492
     16 O          58.7016   86.9648    8.1564 O.co2   1  UNL1       -0.5492
     17 N          66.0010   93.2916   12.4181 N.pl3   1  UNL1       -0.2665
     18 C          66.5178   94.0811   11.2522 C.ar    1  UNL1        0.0815
     19 C          67.1746   93.3772   10.1018 C.ar    1  UNL1        0.0308
     20 C          67.6914   94.1666    8.9358 C.ar    1  UNL1        0.0864
     21 CL         68.3482   93.4627    7.7856 Cl      1  UNL1       -0.0799
     22 C          67.5515   95.6600    8.9201 C.ar    1  UNL1        0.1529
     23 F          68.0684   96.4495    7.7541 F       1  UNL1       -0.2032
     24 C          66.8948   96.3639   10.0703 C.ar    1  UNL1        0.0614
     25 C          66.3779   95.5745   11.2364 C.ar    1  UNL1        0.1559
     26 F          65.7212   96.2784   12.3867 F       1  UNL1       -0.2028
     27 C          66.6136   93.4705   13.7756 C.3     1  UNL1        0.1294
     28 C          67.1708   92.2866   14.5089 C.3     1  UNL1        0.1524
     29 C          66.3534   92.6480   15.7136 C.3     1  UNL1        0.0371
     30 C          67.9882   91.9252   13.3043 C.3     1  UNL1        0.0371
     31 F          67.7280   91.1026   15.2423 F       1  UNL1       -0.2382
@<TRIPOS>UNITY_ATOM_ATTR
15 1
charge -1
@<TRIPOS>BOND
     1     7     8    1
     2     8     1    1
     3     1     2   ar
     4     2     3   ar
     5     3    17    1
     6    17    27    1
     7    27    28    1
     8    28    29    1
     9    28    30    1
    10    28    31    1
    11    17    18    1
    12    18    19   ar
    13    19    20   ar
    14    20    21    1
    15    20    22   ar
    16    22    23    1
    17    22    24   ar
    18    24    25   ar
    19    25    26    1
    20     3     4   ar
    21     4     5   ar
    22     5     6   ar
    23     6     9    1
    24     9    10    2
    25    11     9    1
    26    11    12    1
    27    12    13    1
    28    13    14    1
    29    14    15   ar
    30    14    16   ar
    31     6     1   ar
    32    13    11    1
    33    25    18   ar
@<TRIPOS>MOLECULE
*****
 31 33 0 0 0
SMALL
GASTEIGER

@<TRIPOS>ATOM
      1 C          62.3370   88.5871   11.4349 C.ar    1  UNL1        0.2472
      2 N          63.0816   87.5686   12.2462 N.ar    1  UNL1       -0.1934
      3 C          62.6986   86.1205   12.1665 C.ar    1  UNL1        0.1580
      4 C          61.5711   85.6909   11.2755 C.ar    1  UNL1        0.1337
      5 N          60.8265   86.7094   10.4642 N.ar    1  UNL1       -0.2333
      6 C          61.2095   88.1575   10.5439 C.ar    1  UNL1        0.1689
      7 C          63.4784   90.5460   12.7036 C.3     1  UNL1        0.2543
      8 O          62.7200   90.0352   11.5146 O.3     1  UNL1       -0.4550
      9 C          60.4648   89.1760    9.7325 C.2     1  UNL1        0.1950
     10 O          60.3019   90.5742   10.2506 O.2     1  UNL1       -0.2896
     11 C          59.8831   88.7962    8.4031 C.3     1  UNL1        0.0692
     12 C          59.3060   87.7586    7.4864 C.3     1  UNL1        0.0141
     13 C          59.4526   89.1758    7.0173 C.3     1  UNL1        0.0443
     14 C          59.2888   90.2132    5.9464 C.2     1  UNL1        0.0504
     15 O          60.4959   90.7764    5.2567 O.co2   1  UNL1       -0.5492
     16 O          57.9177   90.6876    5.5652 O.co2   1  UNL1       -0.5492
     17 N          63.4433   85.1020   12.9779 N.pl3   1  UNL1       -0.2665
     18 C          63.2185   83.6391   12.7344 C.ar    1  UNL1        0.0815
     19 C          62.2138   82.8877   13.5568 C.ar    1  UNL1        0.0308
     20 C          61.9890   81.4248   13.3134 C.ar    1  UNL1        0.0864
     21 CL         60.9844   80.6734   14.1357 Cl      1  UNL1       -0.0799
     22 C          62.7687   80.7132   12.2477 C.ar    1  UNL1        0.1529
     23 F          62.5439   79.2503   12.0043 F       1  UNL1       -0.2032
     24 C          63.7733   81.4646   11.4254 C.ar    1  UNL1        0.0614
     25 C          63.9982   82.9276   11.6688 C.ar    1  UNL1        0.1559
     26 F          65.0028   83.6790   10.8465 F       1  UNL1       -0.2028
     27 C          64.4128   85.5466   14.0326 C.3     1  UNL1        0.1294
     28 C          63.9101   86.1983   15.2866 C.3     1  UNL1        0.1524
     29 C          64.5049   87.5032   14.8467 C.3     1  UNL1        0.0371
     30 C          63.3154   84.8935   15.7264 C.3     1  UNL1        0.0371
     31 F          63.4075   86.8502   16.5406 F       1  UNL1       -0.2382
@<TRIPOS>UNITY_ATOM_ATTR
15 1
charge -1
@<TRIPOS>BOND
     1     7     8    1
     2     8     1    1
     3     1     2   ar
     4     2     3   ar
     5     3    17    1
     6    17    27    1
     7    27    28    1
     8    28    29    1
     9    28    30    1
    10    28    31    1
    11    17    18    1
    12    18    19   ar
    13    19    20   ar
    14    20    21    1
    15    20    22   ar
    16    22    23    1
    17    22    24   ar
    18    24    25   ar
    19    25    26    1
    20     3     4   ar
    21     4     5   ar
    22     5     6   ar
    23     6     9    1
    24     9    10    2
    25    11     9    1
    26    11    12    1
    27    12    13    1
    28    13    14    1
    29    14    15   ar
    30    14    16   ar
    31     6     1   ar
    32    13    11    1
    33    25    18   ar
@<TRIPOS>MOLECULE
*****
 31 33 0 0 0
SMALL
GASTEIGER

@<TRIPOS>ATOM
      1 C          63.4080   89.3329   12.7243 C.ar    1  UNL1        0.2472
      2 N          62.9748   88.0446   12.0898 N.ar    1  UNL1       -0.1934
      3 C          63.1949   86.7449   12.8055 C.ar    1  UNL1        0.1580
      4 C          63.8482   86.7334   14.1557 C.ar    1  UNL1        0.1337
      5 N          64.2814   88.0217   14.7902 N.ar    1  UNL1       -0.2333
      6 C          64.0613   89.3215   14.0745 C.ar    1  UNL1        0.1689
      7 C          62.7430   90.6341   10.5762 C.3     1  UNL1        0.2543
      8 O          63.1879   90.6327   12.0086 O.3     1  UNL1       -0.4550
      9 C          64.4945   90.6098   14.7091 C.2     1  UNL1        0.1950
     10 O          63.6157   91.2786   15.7241 O.2     1  UNL1       -0.2896
     11 C          65.8066   91.2292   14.3286 C.3     1  UNL1        0.0692
     12 C          67.2420   91.5283   14.6445 C.3     1  UNL1        0.0141
     13 C          66.6436   92.0030   13.3536 C.3     1  UNL1        0.0443
     14 C          66.7813   92.7238   12.0454 C.2     1  UNL1        0.0504
     15 O          67.8951   92.3669   11.1061 O.co2   1  UNL1       -0.5492
     16 O          65.8053   93.8014   11.6764 O.co2   1  UNL1       -0.5492
     17 N          62.7617   85.4566   12.1710 N.pl3   1  UNL1       -0.2665
     18 C          62.4310   85.4148   10.7085 C.ar    1  UNL1        0.0815
     19 C          61.1709   86.0549   10.2059 C.ar    1  UNL1        0.0308
     20 C          60.8403   86.0131    8.7434 C.ar    1  UNL1        0.0864
     21 CL         59.5802   86.6531    8.2408 Cl      1  UNL1       -0.0799
     22 C          61.7697   85.3314    7.7835 C.ar    1  UNL1        0.1529
     23 F          61.4391   85.2897    6.3210 F       1  UNL1       -0.2032
     24 C          63.0298   84.6914    8.2860 C.ar    1  UNL1        0.0614
     25 C          63.3605   84.7331    9.7486 C.ar    1  UNL1        0.1559
     26 F          64.6205   84.0931   10.2511 F       1  UNL1       -0.2028
     27 C          62.6591   84.2100   12.9990 C.3     1  UNL1        0.1294
     28 C          63.5896   83.0615   12.7439 C.3     1  UNL1        0.1524
     29 C          62.4669   82.2918   12.1140 C.3     1  UNL1        0.0371
     30 C          64.7124   83.8313   13.3737 C.3     1  UNL1        0.0371
     31 F          64.5202   81.9130   12.4887 F       1  UNL1       -0.2382
@<TRIPOS>UNITY_ATOM_ATTR
15 1
charge -1
@<TRIPOS>BOND
     1     7     8    1
     2     8     1    1
     3     1     2   ar
     4     2     3   ar
     5     3    17    1
     6    17    27    1
     7    27    28    1
     8    28    29    1
     9    28    30    1
    10    28    31    1
    11    17    18    1
    12    18    19   ar
    13    19    20   ar
    14    20    21    1
    15    20    22   ar
    16    22    23    1
    17    22    24   ar
    18    24    25   ar
    19    25    26    1
    20     3     4   ar
    21     4     5   ar
    22     5     6   ar
    23     6     9    1
    24     9    10    2
    25    11     9    1
    26    11    12    1
    27    12    13    1
    28    13    14    1
    29    14    15   ar
    30    14    16   ar
    31     6     1   ar
    32    13    11    1
    33    25    18   ar
@<TRIPOS>MOLECULE
*****
 31 33 0 0 0
SMALL
GASTEIGER

@<TRIPOS>ATOM
      1 C          63.4542   84.9047   12.4113 C.ar    1  UNL1        0.2472
      2 N          62.9483   86.3079   12.5696 N.ar    1  UNL1       -0.1934
      3 C          62.2675   86.9936   11.4223 C.ar    1  UNL1        0.1580
      4 C          62.0926   86.2762   10.1167 C.ar    1  UNL1        0.1337
      5 N          62.5986   84.8730    9.9584 N.ar    1  UNL1       -0.2333
      6 C          63.2793   84.1873   11.1057 C.ar    1  UNL1        0.1689
      7 C          64.5320   85.0046   14.7731 C.3     1  UNL1        0.2543
      8 O          64.1350   84.2190   13.5586 O.3     1  UNL1       -0.4550
      9 C          63.7853   82.7841   10.9473 C.2     1  UNL1        0.1950
     10 O          64.9659   82.5076   10.0644 O.2     1  UNL1       -0.2896
     11 C          63.1105   81.6573   11.6719 C.3     1  UNL1        0.0692
     12 C          62.7490   80.2045   11.7652 C.3     1  UNL1        0.0141
     13 C          62.3034   81.1585   12.8336 C.3     1  UNL1        0.0443
     14 C          61.5801   81.4212   14.1212 C.2     1  UNL1        0.0504
     15 O          60.2664   80.7504   14.3938 O.co2   1  UNL1       -0.5492
     16 O          62.1705   82.3546   15.1361 O.co2   1  UNL1       -0.5492
     17 N          61.7615   88.3969   11.5806 N.pl3   1  UNL1       -0.2665
     18 C          62.7132   89.5022   11.9306 C.ar    1  UNL1        0.0815
     19 C          63.1648   89.6819   13.3497 C.ar    1  UNL1        0.0308
     20 C          64.1165   90.7873   13.6996 C.ar    1  UNL1        0.0864
     21 CL         64.5681   90.9669   15.1187 Cl      1  UNL1       -0.0799
     22 C          64.6165   91.7130   12.6305 C.ar    1  UNL1        0.1529
     23 F          65.5682   92.8184   12.9804 F       1  UNL1       -0.2032
     24 C          64.1649   91.5334   11.2115 C.ar    1  UNL1        0.0614
     25 C          63.2132   90.4280   10.8614 C.ar    1  UNL1        0.1559
     26 F          62.7617   90.2483    9.4424 F       1  UNL1       -0.2028
     27 C          60.3039   88.6947   11.3890 C.3     1  UNL1        0.1294
     28 C          59.8699   89.6705   10.3357 C.3     1  UNL1        0.1524
     29 C          59.5694   90.6847   11.3992 C.3     1  UNL1        0.0371
     30 C          60.1705   88.6562    9.2723 C.3     1  UNL1        0.0371
     31 F          59.4359   90.6463    9.2824 F       1  UNL1       -0.2382
@<TRIPOS>UNITY_ATOM_ATTR
15 1
charge -1
@<TRIPOS>BOND
     1     7     8    1
     2     8     1    1
     3     1     2   ar
     4     2     3   ar
     5     3    17    1
     6    17    27    1
     7    27    28    1
     8    28    29    1
     9    28    30    1
    10    28    31    1
    11    17    18    1
    12    18    19   ar
    13    19    20   ar
    14    20    21    1
    15    20    22   ar
    16    22    23    1
    17    22    24   ar
    18    24    25   ar
    19    25    26    1
    20     3     4   ar
    21     4     5   ar
    22     5     6   ar
    23     6     9    1
    24     9    10    2
    25    11     9    1
    26    11    12    1
    27    12    13    1
    28    13    14    1
    29    14    15   ar
    30    14    16   ar
    31     6     1   ar
    32    13    11    1
    33    25    18   ar
@<TRIPOS>MOLECULE
*****
 31 33 0 0 0
SMALL
GASTEIGER

@<TRIPOS>ATOM
      1 C          62.9493   84.9933    9.7562 C.ar    1  UNL1        0.2472
      2 N          62.4584   86.3997    9.9325 N.ar    1  UNL1       -0.1934
      3 C          62.3201   86.9788   11.3092 C.ar    1  UNL1        0.1580
      4 C          62.6726   86.1515   12.5098 C.ar    1  UNL1        0.1337
      5 N          63.1635   84.7451   12.3335 N.ar    1  UNL1       -0.2333
      6 C          63.3018   84.1660   10.9568 C.ar    1  UNL1        0.1689
      7 C          62.2841   84.9770    7.2448 C.3     1  UNL1        0.2543
      8 O          63.0877   84.4141    8.3795 O.3     1  UNL1       -0.4550
      9 C          63.7927   82.7596   10.7806 C.2     1  UNL1        0.1950
     10 O          64.9298   82.4737    9.8450 O.2     1  UNL1       -0.2896
     11 C          63.1465   81.6390   11.5400 C.3     1  UNL1        0.0692
     12 C          62.7861   80.1877   11.6577 C.3     1  UNL1        0.0141
     13 C          62.3876   81.1495   12.7377 C.3     1  UNL1        0.0443
     14 C          61.7194   81.4220   14.0527 C.2     1  UNL1        0.0504
     15 O          62.3442   82.3751   15.0281 O.co2   1  UNL1       -0.5492
     16 O          60.4265   80.7416   14.3922 O.co2   1  UNL1       -0.5492
     17 N          61.8292   88.3852   11.4854 N.pl3   1  UNL1       -0.2665
     18 C          62.7990   89.4833   11.8071 C.ar    1  UNL1        0.0815
     19 C          63.3715   89.5974   13.1890 C.ar    1  UNL1        0.0308
     20 C          64.3413   90.6955   13.5107 C.ar    1  UNL1        0.0864
     21 CL         64.9137   90.8096   14.8925 Cl      1  UNL1       -0.0799
     22 C          64.7388   91.6796   12.4507 C.ar    1  UNL1        0.1529
     23 F          65.7086   92.7777   12.7724 F       1  UNL1       -0.2032
     24 C          64.1664   91.5655   11.0689 C.ar    1  UNL1        0.0614
     25 C          63.1965   90.4674   10.7471 C.ar    1  UNL1        0.1559
     26 F          62.6241   90.3533    9.3653 F       1  UNL1       -0.2028
     27 C          60.3685   88.6935   11.3398 C.3     1  UNL1        0.1294
     28 C          59.8960   89.5773   10.2238 C.3     1  UNL1        0.1524
     29 C          60.1741   88.4813    9.2382 C.3     1  UNL1        0.0371
     30 C          59.6180   90.6733   11.2094 C.3     1  UNL1        0.0371
     31 F          59.4236   90.4611    9.1076 F       1  UNL1       -0.2382
@<TRIPOS>UNITY_ATOM_ATTR
15 1
charge -1
@<TRIPOS>BOND
     1     7     8    1
     2     8     1    1
     3     1     2   ar
     4     2     3   ar
     5     3    17    1
     6    17    27    1
     7    27    28    1
     8    28    29    1
     9    28    30    1
    10    28    31    1
    11    17    18    1
    12    18    19   ar
    13    19    20   ar
    14    20    21    1
    15    20    22   ar
    16    22    23    1
    17    22    24   ar
    18    24    25   ar
    19    25    26    1
    20     3     4   ar
    21     4     5   ar
    22     5     6   ar
    23     6     9    1
    24     9    10    2
    25    11     9    1
    26    11    12    1
    27    12    13    1
    28    13    14    1
    29    14    15   ar
    30    14    16   ar
    31     6     1   ar
    32    13    11    1
    33    25    18   ar
@<TRIPOS>MOLECULE
*****
 31 33 0 0 0
SMALL
GASTEIGER

@<TRIPOS>ATOM
      1 C          63.5320   90.0699   12.5632 C.ar    1  UNL1        0.2472
      2 N          63.0745   89.0385   11.5748 N.ar    1  UNL1       -0.1934
      3 C          63.0680   87.5873   11.9540 C.ar    1  UNL1        0.1580
      4 C          63.5190   87.1674   13.3215 C.ar    1  UNL1        0.1337
      5 N          63.9766   88.1988   14.3099 N.ar    1  UNL1       -0.2333
      6 C          63.9831   89.6500   13.9307 C.ar    1  UNL1        0.1689
      7 C          63.9532   91.9336   10.8027 C.3     1  UNL1        0.2543
      8 O          63.5385   91.5212   12.1840 O.3     1  UNL1       -0.4550
      9 C          64.4406   90.6814   14.9191 C.2     1  UNL1        0.1950
     10 O          63.5969   90.9972   16.1184 O.2     1  UNL1       -0.2896
     11 C          65.7420   91.3970   14.7082 C.3     1  UNL1        0.0692
     12 C          67.0985   91.7996   15.2057 C.3     1  UNL1        0.0141
     13 C          66.6393   92.2338   13.8454 C.3     1  UNL1        0.0443
     14 C          66.8922   92.9676   12.5618 C.2     1  UNL1        0.0504
     15 O          67.8123   92.3821   11.5319 O.co2   1  UNL1       -0.5492
     16 O          66.2251   94.2869   12.3082 O.co2   1  UNL1       -0.5492
     17 N          62.6104   86.5559   10.9656 N.pl3   1  UNL1       -0.2665
     18 C          62.7663   85.0970   11.2775 C.ar    1  UNL1        0.0815
     19 C          62.3641   84.5706   12.6233 C.ar    1  UNL1        0.0308
     20 C          62.5200   83.1117   12.9352 C.ar    1  UNL1        0.0864
     21 CL         62.1177   82.5854   14.2810 Cl      1  UNL1       -0.0799
     22 C          63.0781   82.1792   11.9014 C.ar    1  UNL1        0.1529
     23 F          63.2340   80.7203   12.2133 F       1  UNL1       -0.2032
     24 C          63.4804   82.7055   10.5556 C.ar    1  UNL1        0.0614
     25 C          63.3245   84.1645   10.2437 C.ar    1  UNL1        0.1559
     26 F          63.7268   84.6908    8.8979 F       1  UNL1       -0.2028
     27 C          61.9970   86.9834    9.6652 C.3     1  UNL1        0.1294
     28 C          60.5207   86.8323    9.4468 C.3     1  UNL1        0.1524
     29 C          60.7862   86.0223    8.2126 C.3     1  UNL1        0.0371
     30 C          60.2552   87.6423   10.6810 C.3     1  UNL1        0.0371
     31 F          59.0444   86.6812    9.2284 F       1  UNL1       -0.2382
@<TRIPOS>UNITY_ATOM_ATTR
15 1
charge -1
@<TRIPOS>BOND
     1     7     8    1
     2     8     1    1
     3     1     2   ar
     4     2     3   ar
     5     3    17    1
     6    17    27    1
     7    27    28    1
     8    28    29    1
     9    28    30    1
    10    28    31    1
    11    17    18    1
    12    18    19   ar
    13    19    20   ar
    14    20    21    1
    15    20    22   ar
    16    22    23    1
    17    22    24   ar
    18    24    25   ar
    19    25    26    1
    20     3     4   ar
    21     4     5   ar
    22     5     6   ar
    23     6     9    1
    24     9    10    2
    25    11     9    1
    26    11    12    1
    27    12    13    1
    28    13    14    1
    29    14    15   ar
    30    14    16   ar
    31     6     1   ar
    32    13    11    1
    33    25    18   ar
@<TRIPOS>MOLECULE
*****
 31 33 0 0 0
SMALL
GASTEIGER

@<TRIPOS>ATOM
      1 C          62.6642   86.2278   11.6007 C.ar    1  UNL1        0.2472
      2 N          62.5145   87.7197   11.5573 N.ar    1  UNL1       -0.1934
      3 C          63.1106   88.5651   12.6436 C.ar    1  UNL1        0.1580
      4 C          63.8562   87.9187   13.7732 C.ar    1  UNL1        0.1337
      5 N          64.0059   86.4269   13.8166 N.ar    1  UNL1       -0.2333
      6 C          63.4098   85.5814   12.7303 C.ar    1  UNL1        0.1689
      7 C          62.4407   85.6288    9.0825 C.3     1  UNL1        0.2543
      8 O          62.0681   85.3824   10.5144 O.3     1  UNL1       -0.4550
      9 C          63.5595   84.0895   12.7737 C.2     1  UNL1        0.1950
     10 O          64.3754   83.3869   11.7294 O.2     1  UNL1       -0.2896
     11 C          62.8932   83.3002   13.8615 C.3     1  UNL1        0.0692
     12 C          62.5264   83.1321   15.3061 C.3     1  UNL1        0.0141
     13 C          62.1060   82.1014   14.3008 C.3     1  UNL1        0.0443
     14 C          61.4089   80.8141   13.9740 C.2     1  UNL1        0.0504
     15 O          59.9683   80.6256   14.3471 O.co2   1  UNL1       -0.5492
     16 O          62.1523   79.7153   13.2740 O.co2   1  UNL1       -0.5492
     17 N          62.9609   90.0571   12.6002 N.pl3   1  UNL1       -0.2665
     18 C          64.0814   90.9372   13.0690 C.ar    1  UNL1        0.0815
     19 C          64.8821   91.7255   12.0752 C.ar    1  UNL1        0.0308
     20 C          66.0026   92.6056   12.5440 C.ar    1  UNL1        0.0864
     21 CL         66.8032   93.3938   11.5502 Cl      1  UNL1       -0.0799
     22 C          66.3225   92.6975   14.0066 C.ar    1  UNL1        0.1529
     23 F          67.4430   93.5776   14.4754 F       1  UNL1       -0.2032
     24 C          65.5219   91.9092   15.0004 C.ar    1  UNL1        0.0614
     25 C          64.4013   91.0291   14.5316 C.ar    1  UNL1        0.1559
     26 F          63.6007   90.2408   15.5254 F       1  UNL1       -0.2028
     27 C          61.6907   90.6688   12.0879 C.3     1  UNL1        0.1294
     28 C          61.1273   90.2328   10.7679 C.3     1  UNL1        0.1524
     29 C          62.3652   90.7236   10.0775 C.3     1  UNL1        0.0371
     30 C          59.8895   89.7419   11.4584 C.3     1  UNL1        0.0371
     31 F          60.5640   89.7967    9.4478 F       1  UNL1       -0.2382
@<TRIPOS>UNITY_ATOM_ATTR
15 1
charge -1
@<TRIPOS>BOND
     1     7     8    1
     2     8     1    1
     3     1     2   ar
     4     2     3   ar
     5     3    17    1
     6    17    27    1
     7    27    28    1
     8    28    29    1
     9    28    30    1
    10    28    31    1
    11    17    18    1
    12    18    19   ar
    13    19    20   ar
    14    20    21    1
    15    20    22   ar
    16    22    23    1
    17    22    24   ar
    18    24    25   ar
    19    25    26    1
    20     3     4   ar
    21     4     5   ar
    22     5     6   ar
    23     6     9    1
    24     9    10    2
    25    11     9    1
    26    11    12    1
    27    12    13    1
    28    13    14    1
    29    14    15   ar
    30    14    16   ar
    31     6     1   ar
    32    13    11    1
    33    25    18   ar
@<TRIPOS>MOLECULE
*****
 31 33 0 0 0
SMALL
GASTEIGER

@<TRIPOS>ATOM
      1 C          63.4724   89.7453   12.8715 C.ar    1  UNL1        0.2472
      2 N          63.1562   88.4759   12.1377 N.ar    1  UNL1       -0.1934
      3 C          63.4777   87.1496   12.7604 C.ar    1  UNL1        0.1580
      4 C          64.1155   87.0928   14.1168 C.ar    1  UNL1        0.1337
      5 N          64.4318   88.3622   14.8506 N.ar    1  UNL1       -0.2333
      6 C          64.1102   89.6885   14.2279 C.ar    1  UNL1        0.1689
      7 C          63.7867   91.4632   10.9480 C.3     1  UNL1        0.2543
      8 O          63.1508   91.0715   12.2489 O.3     1  UNL1       -0.4550
      9 C          64.4265   90.9579   14.9618 C.2     1  UNL1        0.1950
     10 O          63.5881   91.3759   16.1332 O.2     1  UNL1       -0.2896
     11 C          65.5813   91.8094   14.5241 C.3     1  UNL1        0.0692
     12 C          66.3019   92.5681   13.4494 C.3     1  UNL1        0.0141
     13 C          66.8606   92.5255   14.8408 C.3     1  UNL1        0.0443
     14 C          67.9219   92.9143   15.8269 C.2     1  UNL1        0.0504
     15 O          68.2753   94.3596   16.0176 O.co2   1  UNL1       -0.5492
     16 O          68.6298   91.8579   16.6225 O.co2   1  UNL1       -0.5492
     17 N          63.1614   85.8801   12.0265 N.pl3   1  UNL1       -0.2665
     18 C          62.3486   85.9247   10.7666 C.ar    1  UNL1        0.0815
     19 C          62.8896   85.3235    9.5033 C.ar    1  UNL1        0.0308
     20 C          62.0768   85.3681    8.2435 C.ar    1  UNL1        0.0864
     21 CL         62.6178   84.7669    6.9802 Cl      1  UNL1       -0.0799
     22 C          60.7229   86.0139    8.2469 C.ar    1  UNL1        0.1529
     23 F          59.9101   86.0585    6.9870 F       1  UNL1       -0.2032
     24 C          60.1819   86.6151    9.5101 C.ar    1  UNL1        0.0614
     25 C          60.9947   86.5705   10.7700 C.ar    1  UNL1        0.1559
     26 F          60.4537   87.1717   12.0333 F       1  UNL1       -0.2028
     27 C          63.6580   84.5661   12.5526 C.3     1  UNL1        0.1294
     28 C          62.6943   83.4424   12.7939 C.3     1  UNL1        0.1524
     29 C          63.1875   82.7535   11.5561 C.3     1  UNL1        0.0371
     30 C          62.2011   84.1312   14.0317 C.3     1  UNL1        0.0371
     31 F          61.7305   82.3185   13.0353 F       1  UNL1       -0.2382
@<TRIPOS>UNITY_ATOM_ATTR
15 1
charge -1
@<TRIPOS>BOND
     1     7     8    1
     2     8     1    1
     3     1     2   ar
     4     2     3   ar
     5     3    17    1
     6    17    27    1
     7    27    28    1
     8    28    29    1
     9    28    30    1
    10    28    31    1
    11    17    18    1
    12    18    19   ar
    13    19    20   ar
    14    20    21    1
    15    20    22   ar
    16    22    23    1
    17    22    24   ar
    18    24    25   ar
    19    25    26    1
    20     3     4   ar
    21     4     5   ar
    22     5     6   ar
    23     6     9    1
    24     9    10    2
    25    11     9    1
    26    11    12    1
    27    12    13    1
    28    13    14    1
    29    14    15   ar
    30    14    16   ar
    31     6     1   ar
    32    13    11    1
    33    25    18   ar
