@<TRIPOS>MOLECULE
*****
 29 33 0 0 0
SMALL
GASTEIGER

@<TRIPOS>ATOM
      1 C          62.8415   89.6810   11.0484 C.ar    1  UNL1        0.0009
      2 C          63.1795   89.3779   12.4781 C.ar    1  UNL1       -0.0002
      3 C          64.1091   90.2786   13.2362 C.ar    1  UNL1       -0.0026
      4 C          64.7006   91.4823   12.5646 C.ar    1  UNL1       -0.0011
      5 C          64.3626   91.7855   11.1350 C.ar    1  UNL1        0.0467
      6 C          63.4330   90.8848   10.3769 C.ar    1  UNL1        0.0144
      7 N          65.0933   93.0347   10.7407 N.am    1  UNL1       -0.2839
      8 C          65.8830   93.5036   11.9267 C.2     1  UNL1        0.2290
      9 O          66.7612   94.7186   11.9767 O.2     1  UNL1       -0.2745
     10 C          65.6403   92.5442   13.0539 C.3     1  UNL1        0.0890
     11 C          66.5800   93.6061   13.5432 C.3     1  UNL1        0.0128
     12 C          66.9180   93.3030   14.9728 C.3     1  UNL1        0.0008
     13 C          66.1872   92.0538   15.3671 C.3     1  UNL1        0.0008
     14 C          65.3976   91.5848   14.1812 C.3     1  UNL1        0.0128
     15 H          65.0604   93.4703    9.8584 H       1  UNL1        0.1549
     16 C          62.7590   86.7467   11.6676 C.3     1  UNL1        0.0310
     17 C          61.8707   87.3132   10.5999 C.ar    1  UNL1       -0.0218
     18 C          60.9411   86.4126    9.8419 C.ar    1  UNL1       -0.0041
     19 C          60.0528   86.9791    8.7742 C.ar    1  UNL1        0.0042
     20 C          60.0940   88.4462    8.4646 C.ar    1  UNL1        0.0533
     21 C          61.0236   89.3468    9.2227 C.ar    1  UNL1        0.0042
     22 C          61.9119   88.7804   10.2903 C.ar    1  UNL1       -0.0038
     23 C          59.2056   89.0127    7.3968 C.2     1  UNL1        0.2458
     24 O          57.9649   88.2771    6.9853 O.2     1  UNL1       -0.2701
     25 N          59.5580   90.3146    6.7408 N.am    1  UNL1       -0.3025
     26 H          60.3724   90.7974    7.0109 H       1  UNL1        0.1497
     27 C          58.6697   90.8811    5.6731 C.3     1  UNL1        0.0720
     28 C          58.4959   91.6895    4.4215 C.3     1  UNL1        0.0213
     29 C          57.3049   91.0539    5.0753 C.3     1  UNL1        0.0213
@<TRIPOS>BOND
     1    16    17    1
     2    17    18   ar
     3    18    19   ar
     4    19    20   ar
     5    20    23    1
     6    23    24    2
     7    23    25   am
     8    25    27    1
     9    27    28    1
    10    28    29    1
    11    20    21   ar
    12    21    22   ar
    13    22     1    1
    14     1     2   ar
    15     2     3   ar
    16     3     4   ar
    17     4     5   ar
    18     5     6   ar
    19     5     7    1
    20     7     8   am
    21     8     9    2
    22     8    10    1
    23    10    11    1
    24    11    12    1
    25    12    13    1
    26    13    14    1
    27    22    17   ar
    28     6     1   ar
    29    14    10    1
    30    29    27    1
    31    10     4    1
    32    25    26    1
    33     7    15    1
@<TRIPOS>MOLECULE
*****
 29 33 0 0 0
SMALL
GASTEIGER

@<TRIPOS>ATOM
      1 C          64.0301   87.9385   14.1963 C.ar    1  UNL1        0.0009
      2 C          63.4333   87.6754   12.8455 C.ar    1  UNL1       -0.0002
      3 C          63.2061   86.2651   12.3876 C.ar    1  UNL1       -0.0026
      4 C          63.5757   85.1180   13.2807 C.ar    1  UNL1       -0.0011
      5 C          64.1725   85.3811   14.6315 C.ar    1  UNL1        0.0467
      6 C          64.3997   86.7913   15.0892 C.ar    1  UNL1        0.0144
      7 N          64.4352   84.0581   15.2879 N.am    1  UNL1       -0.2839
      8 C          64.0007   82.9774   14.3427 C.2     1  UNL1        0.2290
      9 O          64.0829   81.5009   14.5940 O.2     1  UNL1       -0.2745
     10 C          63.4695   83.6324   13.1022 C.3     1  UNL1        0.0890
     11 C          63.3633   82.1468   12.9238 C.3     1  UNL1        0.0128
     12 C          62.7665   81.8838   11.5730 C.3     1  UNL1        0.0008
     13 C          62.5039   83.2067   10.9166 C.3     1  UNL1        0.0008
     14 C          62.9384   84.2874   11.8617 C.3     1  UNL1        0.0128
     15 H          64.8244   83.9229   16.1820 H       1  UNL1        0.1549
     16 C          62.9772   88.8399   16.8569 C.3     1  UNL1        0.0310
     17 C          63.7308   89.7994   15.9844 C.ar    1  UNL1       -0.0218
     18 C          63.9580   91.2096   16.4422 C.ar    1  UNL1       -0.0041
     19 C          64.7116   92.1692   15.5696 C.ar    1  UNL1        0.0042
     20 C          65.2380   91.7185   14.2393 C.ar    1  UNL1        0.0533
     21 C          65.0109   90.3082   13.7815 C.ar    1  UNL1        0.0042
     22 C          64.2572   89.3487   14.6540 C.ar    1  UNL1       -0.0038
     23 C          65.9917   92.6781   13.3667 C.2     1  UNL1        0.2458
     24 O          67.3710   93.1210   13.7557 O.2     1  UNL1       -0.2701
     25 N          65.3659   93.1948   12.1053 N.am    1  UNL1       -0.3025
     26 H          64.4606   92.9041   11.8500 H       1  UNL1        0.1497
     27 C          66.1195   94.1544   11.2327 C.3     1  UNL1        0.0720
     28 C          66.5131   95.5593   10.8846 C.3     1  UNL1        0.0213
     29 C          67.0311   94.4115   10.0696 C.3     1  UNL1        0.0213
@<TRIPOS>BOND
     1    16    17    1
     2    17    18   ar
     3    18    19   ar
     4    19    20   ar
     5    20    23    1
     6    23    24    2
     7    23    25   am
     8    25    27    1
     9    27    28    1
    10    28    29    1
    11    20    21   ar
    12    21    22   ar
    13    22     1    1
    14     1     2   ar
    15     2     3   ar
    16     3     4   ar
    17     4     5   ar
    18     5     6   ar
    19     5     7    1
    20     7     8   am
    21     8     9    2
    22     8    10    1
    23    10    11    1
    24    11    12    1
    25    12    13    1
    26    13    14    1
    27    22    17   ar
    28     6     1   ar
    29    14    10    1
    30    29    27    1
    31    10     4    1
    32    25    26    1
    33     7    15    1
@<TRIPOS>MOLECULE
*****
 29 33 0 0 0
SMALL
GASTEIGER

@<TRIPOS>ATOM
      1 C          62.7742   86.3215   11.6678 C.ar    1  UNL1        0.0009
      2 C          62.9193   85.4839   10.4319 C.ar    1  UNL1       -0.0002
      3 C          62.9254   83.9875   10.5364 C.ar    1  UNL1       -0.0026
      4 C          62.7865   83.3288   11.8769 C.ar    1  UNL1       -0.0011
      5 C          62.6413   84.1664   13.1128 C.ar    1  UNL1        0.0467
      6 C          62.6352   85.6627   13.0083 C.ar    1  UNL1        0.0144
      7 N          62.5236   83.2419   14.2881 N.am    1  UNL1       -0.2839
      8 C          62.5959   81.8329   13.7787 C.2     1  UNL1        0.2290
      9 O          62.5192   80.5886   14.6129 O.2     1  UNL1       -0.2745
     10 C          62.7584   81.8866   12.2884 C.3     1  UNL1        0.0890
     11 C          62.7303   80.4444   12.6999 C.3     1  UNL1        0.0128
     12 C          62.8754   79.6069   11.4640 C.3     1  UNL1        0.0008
     13 C          62.9931   80.5314   10.2887 C.3     1  UNL1        0.0008
     14 C          62.9208   81.9403   10.7982 C.3     1  UNL1        0.0128
     15 H          62.4174   83.5123   15.2288 H       1  UNL1        0.1549
     16 C          61.4128   87.6578    9.3524 C.3     1  UNL1        0.0310
     17 C          62.0874   88.4860   10.4056 C.ar    1  UNL1       -0.0218
     18 C          62.0812   89.9823   10.3011 C.ar    1  UNL1       -0.0041
     19 C          62.7558   90.8104   11.3542 C.ar    1  UNL1        0.0042
     20 C          63.4364   90.1422   12.5119 C.ar    1  UNL1        0.0533
     21 C          63.4426   88.6459   12.6165 C.ar    1  UNL1        0.0042
     22 C          62.7680   87.8178   11.5633 C.ar    1  UNL1       -0.0038
     23 C          64.1110   90.9705   13.5651 C.2     1  UNL1        0.2458
     24 O          63.4278   91.2162   14.8777 O.2     1  UNL1       -0.2701
     25 N          65.4686   91.5529   13.3056 N.am    1  UNL1       -0.3025
     26 H          65.9170   91.3917   12.4441 H       1  UNL1        0.1497
     27 C          66.1432   92.3811   14.3587 C.3     1  UNL1        0.0720
     28 C          66.9678   93.5739   14.7428 C.3     1  UNL1        0.0213
     29 C          66.4871   92.6229   15.7986 C.3     1  UNL1        0.0213
@<TRIPOS>BOND
     1    16    17    1
     2    17    18   ar
     3    18    19   ar
     4    19    20   ar
     5    20    23    1
     6    23    24    2
     7    23    25   am
     8    25    27    1
     9    27    28    1
    10    28    29    1
    11    20    21   ar
    12    21    22   ar
    13    22     1    1
    14     1     2   ar
    15     2     3   ar
    16     3     4   ar
    17     4     5   ar
    18     5     6   ar
    19     5     7    1
    20     7     8   am
    21     8     9    2
    22     8    10    1
    23    10    11    1
    24    11    12    1
    25    12    13    1
    26    13    14    1
    27    22    17   ar
    28     6     1   ar
    29    14    10    1
    30    29    27    1
    31    10     4    1
    32    25    26    1
    33     7    15    1
@<TRIPOS>MOLECULE
*****
 29 33 0 0 0
SMALL
GASTEIGER

@<TRIPOS>ATOM
      1 C          63.5390   89.4767   12.4605 C.ar    1  UNL1        0.0009
      2 C          64.1370   89.2782   13.8217 C.ar    1  UNL1       -0.0002
      3 C          65.0258   90.3328   14.4116 C.ar    1  UNL1       -0.0026
      4 C          65.3166   91.5859   13.6400 C.ar    1  UNL1       -0.0011
      5 C          64.7186   91.7844   12.2788 C.ar    1  UNL1        0.0467
      6 C          63.8298   90.7298   11.6890 C.ar    1  UNL1        0.0144
      7 N          65.1816   93.1129   11.7584 N.am    1  UNL1       -0.2839
      8 C          66.0657   93.7354   12.7980 C.2     1  UNL1        0.2290
      9 O          66.7468   95.0678   12.6931 O.2     1  UNL1       -0.2745
     10 C          66.1492   92.7917   13.9610 C.3     1  UNL1        0.0890
     11 C          66.9817   93.9975   14.2818 C.3     1  UNL1        0.0128
     12 C          67.5797   93.7990   15.6431 C.3     1  UNL1        0.0008
     13 C          67.1167   92.4705   16.1635 C.3     1  UNL1        0.0008
     14 C          66.2326   91.8479   15.1239 C.3     1  UNL1        0.0128
     15 H          64.9465   93.5070   10.8874 H       1  UNL1        0.1549
     16 C          60.9451   90.2522   11.1680 C.3     1  UNL1        0.0310
     17 C          61.3532   88.8099   11.2245 C.ar    1  UNL1       -0.0218
     18 C          60.4644   87.7553   10.6347 C.ar    1  UNL1       -0.0041
     19 C          60.8726   86.3130   10.6911 C.ar    1  UNL1        0.0042
     20 C          62.1695   85.9253   11.3373 C.ar    1  UNL1        0.0533
     21 C          63.0583   86.9799   11.9271 C.ar    1  UNL1        0.0042
     22 C          62.6502   88.4222   11.8707 C.ar    1  UNL1       -0.0038
     23 C          62.5777   84.4829   11.3938 C.2     1  UNL1        0.2458
     24 O          63.1760   83.8250   10.1859 O.2     1  UNL1       -0.2701
     25 N          62.3874   83.6986   12.6580 N.am    1  UNL1       -0.3025
     26 H          61.9947   84.1304   13.4508 H       1  UNL1        0.1497
     27 C          62.7955   82.2563   12.7145 C.3     1  UNL1        0.0720
     28 C          62.7706   80.8753   12.1294 C.3     1  UNL1        0.0213
     29 C          63.5272   81.1391   13.3974 C.3     1  UNL1        0.0213
@<TRIPOS>BOND
     1    16    17    1
     2    17    18   ar
     3    18    19   ar
     4    19    20   ar
     5    20    23    1
     6    23    24    2
     7    23    25   am
     8    25    27    1
     9    27    28    1
    10    28    29    1
    11    20    21   ar
    12    21    22   ar
    13    22     1    1
    14     1     2   ar
    15     2     3   ar
    16     3     4   ar
    17     4     5   ar
    18     5     6   ar
    19     5     7    1
    20     7     8   am
    21     8     9    2
    22     8    10    1
    23    10    11    1
    24    11    12    1
    25    12    13    1
    26    13    14    1
    27    22    17   ar
    28     6     1   ar
    29    14    10    1
    30    29    27    1
    31    10     4    1
    32    25    26    1
    33     7    15    1
@<TRIPOS>MOLECULE
*****
 29 33 0 0 0
SMALL
GASTEIGER

@<TRIPOS>ATOM
      1 C          62.8091   86.3387   11.9056 C.ar    1  UNL1        0.0009
      2 C          62.4203   85.7335   13.2219 C.ar    1  UNL1       -0.0002
      3 C          62.3657   84.2423   13.3748 C.ar    1  UNL1       -0.0026
      4 C          62.6999   83.3564   12.2114 C.ar    1  UNL1       -0.0011
      5 C          63.0887   83.9615   10.8952 C.ar    1  UNL1        0.0467
      6 C          63.1433   85.4527   10.7422 C.ar    1  UNL1        0.0144
      7 N          63.3624   82.8433    9.9336 N.am    1  UNL1       -0.2839
      8 C          63.1427   81.5470   10.6556 C.2     1  UNL1        0.2290
      9 O          63.3041   80.1745   10.0722 O.2     1  UNL1       -0.2745
     10 C          62.7333   81.8640   12.0634 C.3     1  UNL1        0.0890
     11 C          62.7667   80.3717   11.9153 C.3     1  UNL1        0.0128
     12 C          62.3778   79.7665   13.2316 C.3     1  UNL1        0.0008
     13 C          62.1042   80.8848   14.1931 C.3     1  UNL1        0.0008
     14 C          62.3238   82.1811   13.4712 C.3     1  UNL1        0.0128
     15 H          63.6378   82.9427    8.9936 H       1  UNL1        0.1549
     16 C          61.5912   87.6450    9.4951 C.3     1  UNL1        0.0310
     17 C          62.2547   88.4830   10.5474 C.ar    1  UNL1       -0.0218
     18 C          62.3093   89.9742   10.3945 C.ar    1  UNL1       -0.0041
     19 C          62.9729   90.8122   11.4468 C.ar    1  UNL1        0.0042
     20 C          63.5819   90.1591   12.6521 C.ar    1  UNL1        0.0533
     21 C          63.5273   88.6679   12.8050 C.ar    1  UNL1        0.0042
     22 C          62.8637   87.8299   11.7527 C.ar    1  UNL1       -0.0038
     23 C          64.2454   90.9972   13.7044 C.2     1  UNL1        0.2458
     24 O          63.5351   91.2822   14.9944 O.2     1  UNL1       -0.2701
     25 N          65.6193   91.5502   13.4667 N.am    1  UNL1       -0.3025
     26 H          66.0855   91.3631   12.6200 H       1  UNL1        0.1497
     27 C          66.2829   92.3883   14.5189 C.3     1  UNL1        0.0720
     28 C          67.1972   93.5161   14.8958 C.3     1  UNL1        0.0213
     29 C          66.5180   92.7121   15.9646 C.3     1  UNL1        0.0213
@<TRIPOS>BOND
     1    16    17    1
     2    17    18   ar
     3    18    19   ar
     4    19    20   ar
     5    20    23    1
     6    23    24    2
     7    23    25   am
     8    25    27    1
     9    27    28    1
    10    28    29    1
    11    20    21   ar
    12    21    22   ar
    13    22     1    1
    14     1     2   ar
    15     2     3   ar
    16     3     4   ar
    17     4     5   ar
    18     5     6   ar
    19     5     7    1
    20     7     8   am
    21     8     9    2
    22     8    10    1
    23    10    11    1
    24    11    12    1
    25    12    13    1
    26    13    14    1
    27    22    17   ar
    28     6     1   ar
    29    14    10    1
    30    29    27    1
    31    10     4    1
    32    25    26    1
    33     7    15    1
@<TRIPOS>MOLECULE
*****
 29 33 0 0 0
SMALL
GASTEIGER

@<TRIPOS>ATOM
      1 C          62.9494   89.8228   11.7071 C.ar    1  UNL1        0.0009
      2 C          63.4823   89.4720   13.0647 C.ar    1  UNL1       -0.0002
      3 C          64.4823   90.3687   13.7326 C.ar    1  UNL1       -0.0026
      4 C          64.9493   91.6161   13.0429 C.ar    1  UNL1       -0.0011
      5 C          64.4164   91.9670   11.6853 C.ar    1  UNL1        0.0467
      6 C          63.4165   91.0703   11.0175 C.ar    1  UNL1        0.0144
      7 N          65.0573   93.2527   11.2538 N.am    1  UNL1       -0.2839
      8 C          65.9863   93.6965   12.3447 C.2     1  UNL1        0.2290
      9 O          66.8333   94.9344   12.3321 O.2     1  UNL1       -0.2745
     10 C          65.9196   92.6851   13.4504 C.3     1  UNL1        0.0890
     11 C          66.8898   93.7540   13.8579 C.3     1  UNL1        0.0128
     12 C          67.4227   93.4032   15.2155 C.3     1  UNL1        0.0008
     13 C          66.7819   92.1174   15.6470 C.3     1  UNL1        0.0008
     14 C          65.8529   91.6736   14.5561 C.3     1  UNL1        0.0128
     15 H          64.8964   93.7227   10.4039 H       1  UNL1        0.1549
     16 C          60.0352   90.0640   12.3777 C.3     1  UNL1        0.0310
     17 C          60.4923   89.0468   11.3746 C.ar    1  UNL1       -0.0218
     18 C          59.4924   88.1501   10.7067 C.ar    1  UNL1       -0.0041
     19 C          59.9495   87.1329    9.7036 C.ar    1  UNL1        0.0042
     20 C          61.4066   87.0123    9.3683 C.ar    1  UNL1        0.0533
     21 C          62.4066   87.9089   10.0362 C.ar    1  UNL1        0.0042
     22 C          61.9494   88.9262   11.0393 C.ar    1  UNL1       -0.0038
     23 C          61.8637   85.9950    8.3651 C.2     1  UNL1        0.2458
     24 O          63.1507   85.2552    8.5803 O.2     1  UNL1       -0.2701
     25 N          61.0337   85.7175    7.1470 N.am    1  UNL1       -0.3025
     26 H          60.1890   86.2031    7.0058 H       1  UNL1        0.1497
     27 C          61.4908   84.7003    6.1438 C.3     1  UNL1        0.0720
     28 C          61.2227   83.4736    5.3232 C.3     1  UNL1        0.0213
     29 C          62.5503   84.1650    5.2269 C.3     1  UNL1        0.0213
@<TRIPOS>BOND
     1    16    17    1
     2    17    18   ar
     3    18    19   ar
     4    19    20   ar
     5    20    23    1
     6    23    24    2
     7    23    25   am
     8    25    27    1
     9    27    28    1
    10    28    29    1
    11    20    21   ar
    12    21    22   ar
    13    22     1    1
    14     1     2   ar
    15     2     3   ar
    16     3     4   ar
    17     4     5   ar
    18     5     6   ar
    19     5     7    1
    20     7     8   am
    21     8     9    2
    22     8    10    1
    23    10    11    1
    24    11    12    1
    25    12    13    1
    26    13    14    1
    27    22    17   ar
    28     6     1   ar
    29    14    10    1
    30    29    27    1
    31    10     4    1
    32    25    26    1
    33     7    15    1
@<TRIPOS>MOLECULE
*****
 29 33 0 0 0
SMALL
GASTEIGER

@<TRIPOS>ATOM
      1 C          64.1857   88.8516   14.4121 C.ar    1  UNL1        0.0009
      2 C          63.7702   89.1459   13.0011 C.ar    1  UNL1       -0.0002
      3 C          64.2062   90.4205   12.3412 C.ar    1  UNL1       -0.0026
      4 C          65.0576   91.4007   13.0924 C.ar    1  UNL1       -0.0011
      5 C          65.4731   91.1065   14.5033 C.ar    1  UNL1        0.0467
      6 C          65.0371   89.8319   15.1632 C.ar    1  UNL1        0.0144
      7 N          66.3083   92.2536   14.9894 N.am    1  UNL1       -0.2839
      8 C          66.4091   93.2569   13.8789 C.2     1  UNL1        0.2290
      9 O          67.1523   94.5588   13.9316 O.2     1  UNL1       -0.2745
     10 C          65.6361   92.7298   12.7064 C.3     1  UNL1        0.0890
     11 C          66.2146   94.0589   12.3205 C.3     1  UNL1        0.0128
     12 C          65.7991   94.3532   10.9096 C.3     1  UNL1        0.0008
     13 C          64.9639   93.2060   10.4234 C.3     1  UNL1        0.0008
     14 C          64.8631   92.2027   11.5340 C.3     1  UNL1        0.0128
     15 H          66.7184   92.3340   15.8809 H       1  UNL1        0.1549
     16 C          63.1256   88.9016   17.2181 C.3     1  UNL1        0.0310
     17 C          63.2197   87.6021   16.4750 C.ar    1  UNL1       -0.0218
     18 C          62.7838   86.3275   17.1348 C.ar    1  UNL1       -0.0041
     19 C          62.8778   85.0280   16.3916 C.ar    1  UNL1        0.0042
     20 C          63.4079   85.0030   14.9886 C.ar    1  UNL1        0.0533
     21 C          63.8438   86.2775   14.3287 C.ar    1  UNL1        0.0042
     22 C          63.7497   87.5771   15.0719 C.ar    1  UNL1       -0.0038
     23 C          63.5019   83.7033   14.2454 C.2     1  UNL1        0.2458
     24 O          64.7519   83.3595   13.4910 O.2     1  UNL1       -0.2701
     25 N          62.3460   82.7476   14.2568 N.am    1  UNL1       -0.3025
     26 H          61.5255   82.9733   14.7519 H       1  UNL1        0.1497
     27 C          62.4400   81.4480   13.5136 C.3     1  UNL1        0.0720
     28 C          62.7558   80.6889   12.2590 C.3     1  UNL1        0.0213
     29 C          62.2870   79.9562   13.4811 C.3     1  UNL1        0.0213
@<TRIPOS>BOND
     1    16    17    1
     2    17    18   ar
     3    18    19   ar
     4    19    20   ar
     5    20    23    1
     6    23    24    2
     7    23    25   am
     8    25    27    1
     9    27    28    1
    10    28    29    1
    11    20    21   ar
    12    21    22   ar
    13    22     1    1
    14     1     2   ar
    15     2     3   ar
    16     3     4   ar
    17     4     5   ar
    18     5     6   ar
    19     5     7    1
    20     7     8   am
    21     8     9    2
    22     8    10    1
    23    10    11    1
    24    11    12    1
    25    12    13    1
    26    13    14    1
    27    22    17   ar
    28     6     1   ar
    29    14    10    1
    30    29    27    1
    31    10     4    1
    32    25    26    1
    33     7    15    1
@<TRIPOS>MOLECULE
*****
 29 33 0 0 0
SMALL
GASTEIGER

@<TRIPOS>ATOM
      1 C          63.8077   87.1707   14.4688 C.ar    1  UNL1        0.0009
      2 C          64.0411   86.0412   15.4279 C.ar    1  UNL1       -0.0002
      3 C          63.9106   84.6216   14.9610 C.ar    1  UNL1       -0.0026
      4 C          63.5468   84.3317   13.5349 C.ar    1  UNL1       -0.0011
      5 C          63.3134   85.4611   12.5758 C.ar    1  UNL1        0.0467
      6 C          63.4438   86.8806   13.0427 C.ar    1  UNL1        0.0144
      7 N          62.9698   84.8715   11.2400 N.am    1  UNL1       -0.2839
      8 C          62.9909   83.3776   11.3736 C.2     1  UNL1        0.2290
      9 O          62.7055   82.3906   10.2807 O.2     1  UNL1       -0.2745
     10 C          63.3475   83.0439   12.7919 C.3     1  UNL1        0.0890
     11 C          63.1482   81.7562   12.0489 C.3     1  UNL1        0.0128
     12 C          63.3816   80.6268   13.0080 C.3     1  UNL1        0.0008
     13 C          63.7251   81.2164   14.3438 C.3     1  UNL1        0.0008
     14 C          63.7041   82.7103   14.2102 C.3     1  UNL1        0.0128
     15 H          62.7663   85.3763   10.4197 H       1  UNL1        0.1549
     16 C          62.8365   87.9469   17.1990 C.3     1  UNL1        0.0310
     17 C          63.4525   88.9783   16.3008 C.ar    1  UNL1       -0.0218
     18 C          63.5830   90.3977   16.7677 C.ar    1  UNL1       -0.0041
     19 C          64.1990   91.4291   15.8695 C.ar    1  UNL1        0.0042
     20 C          64.6846   91.0410   14.5044 C.ar    1  UNL1        0.0533
     21 C          64.5541   89.6215   14.0374 C.ar    1  UNL1        0.0042
     22 C          63.9381   88.5901   14.9357 C.ar    1  UNL1       -0.0038
     23 C          65.3006   92.0724   13.6061 C.2     1  UNL1        0.2458
     24 O          66.1061   93.1933   14.1932 O.2     1  UNL1       -0.2701
     25 N          65.1112   91.9828   12.1209 N.am    1  UNL1       -0.3025
     26 H          64.5825   91.2471   11.7356 H       1  UNL1        0.1497
     27 C          65.7272   93.0142   11.2227 C.3     1  UNL1        0.0720
     28 C          65.8798   94.4459   10.8019 C.3     1  UNL1        0.0213
     29 C          66.6414   93.3689   10.0877 C.3     1  UNL1        0.0213
@<TRIPOS>BOND
     1    16    17    1
     2    17    18   ar
     3    18    19   ar
     4    19    20   ar
     5    20    23    1
     6    23    24    2
     7    23    25   am
     8    25    27    1
     9    27    28    1
    10    28    29    1
    11    20    21   ar
    12    21    22   ar
    13    22     1    1
    14     1     2   ar
    15     2     3   ar
    16     3     4   ar
    17     4     5   ar
    18     5     6   ar
    19     5     7    1
    20     7     8   am
    21     8     9    2
    22     8    10    1
    23    10    11    1
    24    11    12    1
    25    12    13    1
    26    13    14    1
    27    22    17   ar
    28     6     1   ar
    29    14    10    1
    30    29    27    1
    31    10     4    1
    32    25    26    1
    33     7    15    1
@<TRIPOS>MOLECULE
*****
 29 33 0 0 0
SMALL
GASTEIGER

@<TRIPOS>ATOM
      1 C          64.1733   88.8284   14.4818 C.ar    1  UNL1        0.0009
      2 C          65.0424   89.7781   15.2516 C.ar    1  UNL1       -0.0002
      3 C          65.4823   91.0681   14.6250 C.ar    1  UNL1       -0.0026
      4 C          65.0530   91.4082   13.2286 C.ar    1  UNL1       -0.0011
      5 C          64.1839   90.4585   12.4588 C.ar    1  UNL1        0.0467
      6 C          63.7440   89.1686   13.0854 C.ar    1  UNL1        0.0144
      7 N          63.9211   91.0600   11.1100 N.am    1  UNL1       -0.2839
      8 C          64.6278   92.3816   11.0463 C.2     1  UNL1        0.2290
      9 O          64.6339   93.3227    9.8783 O.2     1  UNL1       -0.2745
     10 C          65.3274   92.5968   12.3556 C.3     1  UNL1        0.0890
     11 C          65.6017   93.7853   11.4826 C.3     1  UNL1        0.0128
     12 C          66.4709   94.7351   12.2525 C.3     1  UNL1        0.0008
     13 C          66.7336   94.1335   13.6012 C.3     1  UNL1        0.0008
     14 C          66.0269   92.8120   13.6650 C.3     1  UNL1        0.0128
     15 H          63.3798   90.6580   10.3926 H       1  UNL1        0.1549
     16 C          63.1107   88.8092   17.2873 C.3     1  UNL1        0.0310
     17 C          63.2022   87.5289   16.5112 C.ar    1  UNL1       -0.0218
     18 C          62.7623   86.2390   17.1378 C.ar    1  UNL1       -0.0041
     19 C          62.8538   84.9587   16.3616 C.ar    1  UNL1        0.0042
     20 C          63.3850   84.9683   14.9589 C.ar    1  UNL1        0.0533
     21 C          63.8249   86.2582   14.3323 C.ar    1  UNL1        0.0042
     22 C          63.7334   87.5385   15.1084 C.ar    1  UNL1       -0.0038
     23 C          63.4765   83.6878   14.1828 C.2     1  UNL1        0.2458
     24 O          64.6779   83.4133   13.3277 O.2     1  UNL1       -0.2701
     25 N          62.3665   82.6821   14.2618 N.am    1  UNL1       -0.3025
     26 H          61.5779   82.8624   14.8230 H       1  UNL1        0.1497
     27 C          62.4578   81.4018   13.4857 C.3     1  UNL1        0.0720
     28 C          62.2426   79.9201   13.3940 C.3     1  UNL1        0.0213
     29 C          62.8313   80.6657   12.2332 C.3     1  UNL1        0.0213
@<TRIPOS>BOND
     1    16    17    1
     2    17    18   ar
     3    18    19   ar
     4    19    20   ar
     5    20    23    1
     6    23    24    2
     7    23    25   am
     8    25    27    1
     9    27    28    1
    10    28    29    1
    11    20    21   ar
    12    21    22   ar
    13    22     1    1
    14     1     2   ar
    15     2     3   ar
    16     3     4   ar
    17     4     5   ar
    18     5     6   ar
    19     5     7    1
    20     7     8   am
    21     8     9    2
    22     8    10    1
    23    10    11    1
    24    11    12    1
    25    12    13    1
    26    13    14    1
    27    22    17   ar
    28     6     1   ar
    29    14    10    1
    30    29    27    1
    31    10     4    1
    32    25    26    1
    33     7    15    1
