@<TRIPOS>MOLECULE
*****
 33 37 0 0 0
SMALL
GASTEIGER

@<TRIPOS>ATOM
      1 C          63.0845   94.9510   -0.9804 C.3     1  UNL1        0.1272
      2 C          64.2583   95.6787   -1.5658 C.2     1  UNL1        0.0260
      3 C          64.7839   96.3317   -2.8097 C.2     1  UNL1        0.0757
      4 N          66.1575   96.8560   -2.5129 N.2     1  UNL1       -0.1569
      5 N          66.4809   96.5270   -1.0856 N.2     1  UNL1       -0.1631
      6 C          65.3071   95.7994   -0.5003 C.3     1  UNL1        0.2225
      7 C          64.7815   95.1464    0.7436 C.2     1  UNL1        0.2581
      8 O          65.5030   95.0369    2.0542 O.2     1  UNL1       -0.2720
      9 N          63.4078   94.6220    0.4469 N.am    1  UNL1       -0.2508
     10 C          61.7957   93.5176   -2.7225 C.ar    1  UNL1        0.1366
     11 C          60.5220   93.1785   -3.4387 C.ar    1  UNL1        0.0366
     12 C          59.2635   93.9336   -3.1289 C.ar    1  UNL1        0.0031
     13 C          59.2786   95.0279   -2.1031 C.ar    1  UNL1       -0.0001
     14 C          60.5523   95.3670   -1.3869 C.ar    1  UNL1        0.0007
     15 C          61.8108   94.6119   -1.6966 C.ar    1  UNL1        0.0340
     16 C          63.6150   92.7778   -4.4234 C.3     1  UNL1        0.2525
     17 O          63.0542   92.7625   -3.0322 O.3     1  UNL1       -0.4717
     18 C          62.5144   93.8962    1.4085 C.ar    1  UNL1        0.0544
     19 C          61.1065   94.3662    1.6251 C.ar    1  UNL1        0.0151
     20 C          60.2130   93.6403    2.5869 C.ar    1  UNL1        0.0060
     21 C          60.7274   92.4445    3.3320 C.ar    1  UNL1        0.0552
     22 C          62.1354   91.9744    3.1154 C.ar    1  UNL1        0.0060
     23 C          63.0288   92.7003    2.1537 C.ar    1  UNL1        0.0151
     24 C          59.8340   91.7186    4.2937 C.ar    1  UNL1        0.2496
     25 N          58.3704   91.9730    4.5012 N.ar    1  UNL1       -0.1072
     26 N          57.8792   91.0225    5.5525 N.ar    1  UNL1       -0.1114
     27 C          59.0393   90.1806    5.9948 C.ar    1  UNL1        0.2270
     28 C          58.9983   89.0986    7.0327 C.3     1  UNL1        0.0967
     29 O          60.2474   90.6109    5.2168 O.2     1  UNL1       -0.4195
     30 C          64.0624   96.4411   -4.1203 C.3     1  UNL1        0.0367
     31 C          65.3103   96.0263   -4.8419 C.3     1  UNL1        0.0060
     32 C          62.8146   96.8560   -3.3987 C.3     1  UNL1        0.0060
     33 C          63.3410   96.5506   -5.4309 C.3     1  UNL1        0.0060
@<TRIPOS>BOND
     1    16    17    1
     2    17    10    1
     3    10    11   ar
     4    11    12   ar
     5    12    13   ar
     6    13    14   ar
     7    14    15   ar
     8    15     1    1
     9     1     2    1
    10     2     3    2
    11     3    30    1
    12    30    31    1
    13    30    32    1
    14    30    33    1
    15     3     4    1
    16     4     5    2
    17     5     6    1
    18     6     7    1
    19     7     8    2
    20     7     9   am
    21     9    18    1
    22    18    19   ar
    23    19    20   ar
    24    20    21   ar
    25    21    24    1
    26    24    25   ar
    27    25    26   ar
    28    26    27   ar
    29    27    28    1
    30    27    29   ar
    31    21    22   ar
    32    22    23   ar
    33    15    10   ar
    34     9     1    1
    35    23    18   ar
    36     6     2    1
    37    29    24   ar
@<TRIPOS>MOLECULE
*****
 33 37 0 0 0
SMALL
GASTEIGER

@<TRIPOS>ATOM
      1 C          61.0706   95.0614   -2.2989 C.3     1  UNL1        0.1272
      2 C          62.4389   94.8498   -2.8759 C.2     1  UNL1        0.0260
      3 C          63.8968   94.7519   -2.5373 C.2     1  UNL1        0.0757
      4 N          64.6528   94.5075   -3.8096 N.2     1  UNL1       -0.1569
      5 N          63.6620   94.4543   -4.9346 N.2     1  UNL1       -0.1631
      6 C          62.2937   94.6659   -4.3575 C.3     1  UNL1        0.2225
      7 C          60.8358   94.7638   -4.6962 C.2     1  UNL1        0.2581
      8 O          60.2386   94.6392   -6.0666 O.2     1  UNL1       -0.2720
      9 N          60.0797   95.0082   -3.4239 N.am    1  UNL1       -0.2508
     10 C          60.1883   94.1677   -0.0245 C.ar    1  UNL1        0.1366
     11 C          59.8671   94.3930    1.4234 C.ar    1  UNL1        0.0366
     12 C          60.1070   95.7371    2.0445 C.ar    1  UNL1        0.0031
     13 C          60.6681   96.8560    1.2179 C.ar    1  UNL1       -0.0001
     14 C          60.9892   96.6307   -0.2300 C.ar    1  UNL1        0.0007
     15 C          60.7494   95.2866   -0.8511 C.ar    1  UNL1        0.0340
     16 C          60.5932   91.6016   -0.0616 C.3     1  UNL1        0.2525
     17 O          59.9484   92.8236   -0.6456 O.3     1  UNL1       -0.4717
     18 C          58.5939   95.1709   -3.2985 C.ar    1  UNL1        0.0544
     19 C          57.9772   96.5343   -3.4033 C.ar    1  UNL1        0.0151
     20 C          56.4913   96.6970   -3.2780 C.ar    1  UNL1        0.0060
     21 C          55.6221   95.4964   -3.0479 C.ar    1  UNL1        0.0552
     22 C          56.2389   94.1330   -2.9431 C.ar    1  UNL1        0.0060
     23 C          57.7247   93.9703   -3.0684 C.ar    1  UNL1        0.0151
     24 C          54.1363   95.6591   -2.9226 C.ar    1  UNL1        0.2496
     25 N          53.3276   95.4435   -1.6777 N.ar    1  UNL1       -0.1072
     26 N          51.8898   95.7171   -2.0059 N.ar    1  UNL1       -0.1114
     27 C          51.8098   96.1018   -3.4536 C.ar    1  UNL1        0.2270
     28 C          50.5607   96.4595   -4.2031 C.3     1  UNL1        0.0967
     29 O          53.1982   96.0659   -4.0201 O.2     1  UNL1       -0.4195
     30 C          64.4940   94.8765   -1.1669 C.3     1  UNL1        0.0367
     31 C          65.0220   96.2353   -1.5206 C.3     1  UNL1        0.0060
     32 C          63.9660   93.5178   -0.8132 C.3     1  UNL1        0.0060
     33 C          65.0912   95.0012    0.2034 C.3     1  UNL1        0.0060
@<TRIPOS>BOND
     1    16    17    1
     2    17    10    1
     3    10    11   ar
     4    11    12   ar
     5    12    13   ar
     6    13    14   ar
     7    14    15   ar
     8    15     1    1
     9     1     2    1
    10     2     3    2
    11     3    30    1
    12    30    31    1
    13    30    32    1
    14    30    33    1
    15     3     4    1
    16     4     5    2
    17     5     6    1
    18     6     7    1
    19     7     8    2
    20     7     9   am
    21     9    18    1
    22    18    19   ar
    23    19    20   ar
    24    20    21   ar
    25    21    24    1
    26    24    25   ar
    27    25    26   ar
    28    26    27   ar
    29    27    28    1
    30    27    29   ar
    31    21    22   ar
    32    22    23   ar
    33    15    10   ar
    34     9     1    1
    35    23    18   ar
    36     6     2    1
    37    29    24   ar
@<TRIPOS>MOLECULE
*****
 33 37 0 0 0
SMALL
GASTEIGER

@<TRIPOS>ATOM
      1 C          61.7004   94.3023   -1.4485 C.3     1  UNL1        0.1272
      2 C          62.7359   94.9420   -2.3252 C.2     1  UNL1        0.0260
      3 C          62.9730   95.5569   -3.6726 C.2     1  UNL1        0.0757
      4 N          64.4112   95.9770   -3.7437 N.2     1  UNL1       -0.1569
      5 N          65.0630   95.6216   -2.4402 N.2     1  UNL1       -0.1631
      6 C          64.0275   94.9819   -1.5635 C.3     1  UNL1        0.2225
      7 C          63.7903   94.3669   -0.2161 C.2     1  UNL1        0.2581
      8 O          64.8120   94.2011    0.8696 O.2     1  UNL1       -0.2720
      9 N          62.3520   93.9469   -0.1449 N.am    1  UNL1       -0.2508
     10 C          59.2519   95.1516   -1.6313 C.ar    1  UNL1        0.1366
     11 C          57.8166   94.9097   -1.9943 C.ar    1  UNL1        0.0366
     12 C          57.3948   93.5767   -2.5374 C.ar    1  UNL1        0.0031
     13 C          58.4082   92.4855   -2.7176 C.ar    1  UNL1       -0.0001
     14 C          59.8434   92.7274   -2.3546 C.ar    1  UNL1        0.0007
     15 C          60.2652   94.0604   -1.8114 C.ar    1  UNL1        0.0340
     16 C          59.3748   96.8423    0.3377 C.3     1  UNL1        0.2525
     17 O          59.6737   96.4847   -1.0881 O.3     1  UNL1       -0.4717
     18 C          61.6830   93.2873    1.0243 C.ar    1  UNL1        0.0544
     19 C          60.2240   93.5203    1.2831 C.ar    1  UNL1        0.0151
     20 C          59.5549   92.8607    2.4524 C.ar    1  UNL1        0.0060
     21 C          60.3448   91.9681    3.3629 C.ar    1  UNL1        0.0552
     22 C          61.8039   91.7350    3.1041 C.ar    1  UNL1        0.0060
     23 C          62.4730   92.3946    1.9349 C.ar    1  UNL1        0.0151
     24 C          59.6758   91.3084    4.5322 C.ar    1  UNL1        0.2496
     25 N          58.2801   91.5729    5.0139 N.ar    1  UNL1       -0.1072
     26 N          58.0267   90.6964    6.2045 N.ar    1  UNL1       -0.1114
     27 C          59.2659   89.8903    6.4587 C.ar    1  UNL1        0.2270
     28 C          59.4530   88.8828    7.5541 C.3     1  UNL1        0.0967
     29 O          60.2851   90.2685    5.4252 O.2     1  UNL1       -0.4195
     30 C          61.9513   95.7228   -4.7583 C.3     1  UNL1        0.0367
     31 C          61.3276   96.8556   -3.9983 C.3     1  UNL1        0.0060
     32 C          62.5750   94.5899   -5.5182 C.3     1  UNL1        0.0060
     33 C          60.9297   95.8886   -5.8439 C.3     1  UNL1        0.0060
@<TRIPOS>BOND
     1    16    17    1
     2    17    10    1
     3    10    11   ar
     4    11    12   ar
     5    12    13   ar
     6    13    14   ar
     7    14    15   ar
     8    15     1    1
     9     1     2    1
    10     2     3    2
    11     3    30    1
    12    30    31    1
    13    30    32    1
    14    30    33    1
    15     3     4    1
    16     4     5    2
    17     5     6    1
    18     6     7    1
    19     7     8    2
    20     7     9   am
    21     9    18    1
    22    18    19   ar
    23    19    20   ar
    24    20    21   ar
    25    21    24    1
    26    24    25   ar
    27    25    26   ar
    28    26    27   ar
    29    27    28    1
    30    27    29   ar
    31    21    22   ar
    32    22    23   ar
    33    15    10   ar
    34     9     1    1
    35    23    18   ar
    36     6     2    1
    37    29    24   ar
@<TRIPOS>MOLECULE
*****
 33 37 0 0 0
SMALL
GASTEIGER

@<TRIPOS>ATOM
      1 C          65.0331   91.4365   13.6926 C.3     1  UNL1        0.1272
      2 C          65.3070   91.9618   15.0706 C.2     1  UNL1        0.0260
      3 C          66.1881   92.8778   15.8672 C.2     1  UNL1        0.0757
      4 N          65.7502   92.8117   17.3003 N.2     1  UNL1       -0.1569
      5 N          64.5985   91.8548   17.3895 N.2     1  UNL1       -0.1631
      6 C          64.3246   91.3295   16.0114 C.3     1  UNL1        0.2225
      7 C          63.4435   90.4135   15.2149 C.2     1  UNL1        0.2581
      8 O          62.3215   89.5780   15.7563 O.2     1  UNL1       -0.2720
      9 N          63.8814   90.4796   13.7816 N.am    1  UNL1       -0.2508
     10 C          67.2736   91.6754   12.3991 C.ar    1  UNL1        0.1366
     11 C          68.0203   92.0426   11.1509 C.ar    1  UNL1        0.0366
     12 C          67.2731   92.5379    9.9483 C.ar    1  UNL1        0.0031
     13 C          65.7793   92.6661    9.9937 C.ar    1  UNL1       -0.0001
     14 C          65.0326   92.2989   11.2419 C.ar    1  UNL1        0.0007
     15 C          65.7798   91.8036   12.4445 C.ar    1  UNL1        0.0340
     16 C          69.4700   91.5245   13.7786 C.3     1  UNL1        0.2525
     17 O          68.0208   91.1801   13.6017 O.3     1  UNL1       -0.4717
     18 C          63.2742   89.7219   12.6384 C.ar    1  UNL1        0.0544
     19 C          63.3645   88.2252   12.5984 C.ar    1  UNL1        0.0151
     20 C          62.7573   87.4674   11.4551 C.ar    1  UNL1        0.0060
     21 C          62.0597   88.2064   10.3518 C.ar    1  UNL1        0.0552
     22 C          61.9694   89.7032   10.3918 C.ar    1  UNL1        0.0060
     23 C          62.5766   90.4609   11.5350 C.ar    1  UNL1        0.0151
     24 C          61.4525   87.4487    9.2085 C.ar    1  UNL1        0.2496
     25 N          60.1483   87.7618    8.5369 N.ar    1  UNL1       -0.1072
     26 N          59.9327   86.7514    7.4494 N.ar    1  UNL1       -0.1114
     27 C          61.1036   85.8138    7.4489 C.ar    1  UNL1        0.2270
     28 C          61.3005   84.6497    6.5237 C.3     1  UNL1        0.0967
     29 O          62.0429   86.2448    8.5361 O.2     1  UNL1       -0.4195
     30 C          67.3101   93.7133   15.3257 C.3     1  UNL1        0.0367
     31 C          68.2130   93.2031   16.4095 C.3     1  UNL1        0.0060
     32 C          66.4072   94.2235   14.2420 C.3     1  UNL1        0.0060
     33 C          68.4321   94.5487   14.7843 C.3     1  UNL1        0.0060
@<TRIPOS>BOND
     1    16    17    1
     2    17    10    1
     3    10    11   ar
     4    11    12   ar
     5    12    13   ar
     6    13    14   ar
     7    14    15   ar
     8    15     1    1
     9     1     2    1
    10     2     3    2
    11     3    30    1
    12    30    31    1
    13    30    32    1
    14    30    33    1
    15     3     4    1
    16     4     5    2
    17     5     6    1
    18     6     7    1
    19     7     8    2
    20     7     9   am
    21     9    18    1
    22    18    19   ar
    23    19    20   ar
    24    20    21   ar
    25    21    24    1
    26    24    25   ar
    27    25    26   ar
    28    26    27   ar
    29    27    28    1
    30    27    29   ar
    31    21    22   ar
    32    22    23   ar
    33    15    10   ar
    34     9     1    1
    35    23    18   ar
    36     6     2    1
    37    29    24   ar
@<TRIPOS>MOLECULE
*****
 33 37 0 0 0
SMALL
GASTEIGER

@<TRIPOS>ATOM
      1 C          62.9425   87.3758   12.0538 C.3     1  UNL1        0.1272
      2 C          63.3554   88.7160   12.5861 C.2     1  UNL1        0.0260
      3 C          63.2859   90.1938   12.3388 C.2     1  UNL1        0.0757
      4 N          64.0234   90.8845   13.4475 N.2     1  UNL1       -0.1569
      5 N          64.5487   89.8335   14.3800 N.2     1  UNL1       -0.1631
      6 C          64.1358   88.4933   13.8476 C.3     1  UNL1        0.2225
      7 C          64.2053   87.0154   14.0949 C.2     1  UNL1        0.2581
      8 O          64.8917   86.3458   15.2483 O.2     1  UNL1       -0.2720
      9 N          63.4678   86.3247   12.9862 N.am    1  UNL1       -0.2508
     10 C          60.6769   87.4392   10.7836 C.ar    1  UNL1        0.1366
     11 C          59.8789   87.1931    9.5375 C.ar    1  UNL1        0.0366
     12 C          60.5484   86.6376    8.3156 C.ar    1  UNL1        0.0031
     13 C          62.0160   86.3282    8.3397 C.ar    1  UNL1       -0.0001
     14 C          62.8140   86.5743    9.5858 C.ar    1  UNL1        0.0007
     15 C          62.1445   87.1298   10.8077 C.ar    1  UNL1        0.0340
     16 C          58.7845   88.8521   11.8664 C.3     1  UNL1        0.2525
     17 O          60.0074   87.9946   12.0056 O.3     1  UNL1       -0.4717
     18 C          63.2872   84.8433   12.8364 C.ar    1  UNL1        0.0544
     19 C          62.5144   84.0739   13.8663 C.ar    1  UNL1        0.0151
     20 C          62.3339   82.5923   13.7165 C.ar    1  UNL1        0.0060
     21 C          62.9262   81.8802   12.5366 C.ar    1  UNL1        0.0552
     22 C          63.6990   82.6496   11.5066 C.ar    1  UNL1        0.0060
     23 C          63.8795   84.1310   11.6565 C.ar    1  UNL1        0.0151
     24 C          62.7457   80.3986   12.3867 C.ar    1  UNL1        0.2496
     25 N          62.3043   79.4509   13.4624 N.ar    1  UNL1       -0.1072
     26 N          62.2607   78.0713   12.8753 N.ar    1  UNL1       -0.1114
     27 C          62.6751   78.1663   11.4368 C.ar    1  UNL1        0.2270
     28 C          62.7727   77.0236   10.4700 C.3     1  UNL1        0.0967
     29 O          62.9749   79.6047   11.1348 O.2     1  UNL1       -0.4195
     30 C          62.5994   90.8635   11.1854 C.3     1  UNL1        0.0367
     31 C          63.9167   91.0008   10.4811 C.3     1  UNL1        0.0060
     32 C          61.2822   90.7262   11.8896 C.3     1  UNL1        0.0060
     33 C          61.9130   91.5331   10.0320 C.3     1  UNL1        0.0060
@<TRIPOS>BOND
     1    16    17    1
     2    17    10    1
     3    10    11   ar
     4    11    12   ar
     5    12    13   ar
     6    13    14   ar
     7    14    15   ar
     8    15     1    1
     9     1     2    1
    10     2     3    2
    11     3    30    1
    12    30    31    1
    13    30    32    1
    14    30    33    1
    15     3     4    1
    16     4     5    2
    17     5     6    1
    18     6     7    1
    19     7     8    2
    20     7     9   am
    21     9    18    1
    22    18    19   ar
    23    19    20   ar
    24    20    21   ar
    25    21    24    1
    26    24    25   ar
    27    25    26   ar
    28    26    27   ar
    29    27    28    1
    30    27    29   ar
    31    21    22   ar
    32    22    23   ar
    33    15    10   ar
    34     9     1    1
    35    23    18   ar
    36     6     2    1
    37    29    24   ar
@<TRIPOS>MOLECULE
*****
 33 37 0 0 0
SMALL
GASTEIGER

@<TRIPOS>ATOM
      1 C          63.1529   85.2262   13.3957 C.3     1  UNL1        0.1272
      2 C          62.8613   84.1348   14.3824 C.2     1  UNL1        0.0260
      3 C          62.5267   82.6788   14.5178 C.2     1  UNL1        0.0757
      4 N          62.3894   82.3688   15.9789 N.2     1  UNL1       -0.1569
      5 N          62.6392   83.6330   16.7466 N.2     1  UNL1       -0.1631
      6 C          62.9309   84.7245   15.7599 C.3     1  UNL1        0.2225
      7 C          63.2655   86.1804   15.6245 C.2     1  UNL1        0.2581
      8 O          63.4334   87.1550   16.7523 O.2     1  UNL1       -0.2720
      9 N          63.4028   86.4905   14.1633 N.am    1  UNL1       -0.2508
     10 C          62.1518   85.7579   11.0579 C.ar    1  UNL1        0.1366
     11 C          62.1875   85.6109    9.5655 C.ar    1  UNL1        0.0366
     12 C          63.2598   84.7854    8.9185 C.ar    1  UNL1        0.0031
     13 C          64.2965   84.1067    9.7640 C.ar    1  UNL1       -0.0001
     14 C          64.2609   84.2537   11.2564 C.ar    1  UNL1        0.0007
     15 C          63.1885   85.0793   11.9033 C.ar    1  UNL1        0.0340
     16 C          60.2626   87.5324   10.8788 C.3     1  UNL1        0.2525
     17 O          61.0795   86.5835   11.7048 O.3     1  UNL1       -0.4717
     18 C          63.7320   87.8297   13.5734 C.ar    1  UNL1        0.0544
     19 C          64.5955   88.7923   14.3335 C.ar    1  UNL1        0.0151
     20 C          64.9248   90.1316   13.7436 C.ar    1  UNL1        0.0060
     21 C          64.3906   90.5082   12.3935 C.ar    1  UNL1        0.0552
     22 C          63.5271   89.5456   11.6333 C.ar    1  UNL1        0.0060
     23 C          63.1978   88.2064   12.2232 C.ar    1  UNL1        0.0151
     24 C          64.7198   91.8475   11.8036 C.ar    1  UNL1        0.2496
     25 N          64.3569   92.3174   10.4261 N.ar    1  UNL1       -0.1072
     26 N          64.8826   93.7122   10.2588 N.ar    1  UNL1       -0.1114
     27 C          65.5704   94.1044   11.5328 C.ar    1  UNL1        0.2270
     28 C          66.2411   95.4183   11.8043 C.3     1  UNL1        0.0967
     29 O          65.4698   92.9519   12.4875 O.2     1  UNL1       -0.4195
     30 C          62.3587   81.7042   13.3900 C.3     1  UNL1        0.0367
     31 C          60.9041   81.5637   13.7280 C.3     1  UNL1        0.0060
     32 C          63.8134   81.8447   13.0520 C.3     1  UNL1        0.0060
     33 C          62.1908   80.7295   12.2623 C.3     1  UNL1        0.0060
@<TRIPOS>BOND
     1    16    17    1
     2    17    10    1
     3    10    11   ar
     4    11    12   ar
     5    12    13   ar
     6    13    14   ar
     7    14    15   ar
     8    15     1    1
     9     1     2    1
    10     2     3    2
    11     3    30    1
    12    30    31    1
    13    30    32    1
    14    30    33    1
    15     3     4    1
    16     4     5    2
    17     5     6    1
    18     6     7    1
    19     7     8    2
    20     7     9   am
    21     9    18    1
    22    18    19   ar
    23    19    20   ar
    24    20    21   ar
    25    21    24    1
    26    24    25   ar
    27    25    26   ar
    28    26    27   ar
    29    27    28    1
    30    27    29   ar
    31    21    22   ar
    32    22    23   ar
    33    15    10   ar
    34     9     1    1
    35    23    18   ar
    36     6     2    1
    37    29    24   ar
