@<TRIPOS>MOLECULE
*****
 25 27 0 0 0
SMALL
GASTEIGER

@<TRIPOS>ATOM
      1 C          65.1135   91.8901   12.7558 C.ar    1  UNL1        0.1109
      2 C          64.3520   91.8078   11.4661 C.ar    1  UNL1        0.1468
      3 F          64.6205   92.7982   10.3720 F       1  UNL1       -0.2039
      4 C          63.3219   90.7350   11.2704 C.ar    1  UNL1        0.0331
      5 C          63.0534   89.7445   12.3644 C.ar    1  UNL1        0.0416
      6 C          63.8150   89.8269   13.6542 C.ar    1  UNL1        0.1667
      7 C          64.8450   90.8996   13.8498 C.ar    1  UNL1        0.1803
      8 F          65.6065   90.9819   15.1395 F       1  UNL1       -0.2007
      9 N          67.2575   93.1227   11.9598 N.am    1  UNL1       -0.3252
     10 C          66.1435   92.9628   12.9514 C.2     1  UNL1        0.2472
     11 O          66.0594   93.8757   14.1387 O.2     1  UNL1       -0.2702
     12 H          67.9335   93.8268   12.0882 H       1  UNL1        0.1453
     13 H          67.3127   92.5236   11.1805 H       1  UNL1        0.1453
     14 O          63.5465   88.8364   14.7482 O.3     1  UNL1       -0.4661
     15 C          64.4352   87.6390   14.9106 C.3     1  UNL1        0.2575
     16 C          63.9943   86.3021   14.3926 C.ar    1  UNL1        0.1338
     17 N          63.4874   86.0156   13.0102 N.ar    1  UNL1       -0.2202
     18 C          63.1628   84.5534   12.9293 C.ar    1  UNL1        0.1687
     19 N          62.6279   83.7042   11.8145 N.ar    1  UNL1       -0.2237
     20 C          62.3993   82.2378   12.0321 C.ar    1  UNL1        0.1119
     21 C          62.7056   81.6206   13.3645 C.ar    1  UNL1        0.0774
     22 CL         62.4770   80.1541   13.5821 Cl      1  UNL1       -0.0806
     23 C          63.2406   82.4697   14.4792 C.ar    1  UNL1        0.0226
     24 C          63.4691   83.9361   14.2616 C.ar    1  UNL1        0.0673
     25 S          63.9830   85.0169   15.1660 S.2     1  UNL1       -0.0655
@<TRIPOS>BOND
     1     9    10   am
     2    10    11    2
     3    10     1    1
     4     1     2   ar
     5     2     3    1
     6     2     4   ar
     7     4     5   ar
     8     5     6   ar
     9     6    14    1
    10    14    15    1
    11    15    16    1
    12    16    17   ar
    13    17    18   ar
    14    18    19   ar
    15    19    20   ar
    16    20    21   ar
    17    21    22    1
    18    21    23   ar
    19    23    24   ar
    20    24    25   ar
    21     6     7   ar
    22     7     8    1
    23     7     1   ar
    24    25    16   ar
    25    24    18   ar
    26     9    12    1
    27     9    13    1
@<TRIPOS>MOLECULE
*****
 25 27 0 0 0
SMALL
GASTEIGER

@<TRIPOS>ATOM
      1 C          63.3467   84.0169   11.5061 C.ar    1  UNL1        0.1109
      2 C          63.6771   83.9557   10.0442 C.ar    1  UNL1        0.1468
      3 F          64.6479   82.9309    9.5370 F       1  UNL1       -0.2039
      4 C          63.0367   84.9193    9.0895 C.ar    1  UNL1        0.0331
      5 C          62.0659   85.9442    9.5967 C.ar    1  UNL1        0.0416
      6 C          61.7355   86.0053   11.0586 C.ar    1  UNL1        0.1667
      7 C          62.3758   85.0418   12.0133 C.ar    1  UNL1        0.1803
      8 F          62.0454   85.1030   13.4751 F       1  UNL1       -0.2007
      9 N          64.9679   83.5491   13.4816 N.am    1  UNL1       -0.3252
     10 C          63.9871   83.0534   12.4607 C.2     1  UNL1        0.2472
     11 O          63.6466   81.5940   12.3945 O.2     1  UNL1       -0.2702
     12 H          65.3882   82.9166   14.1081 H       1  UNL1        0.1453
     13 H          65.1914   84.5069   13.5250 H       1  UNL1        0.1453
     14 O          60.7646   87.0302   11.5659 O.3     1  UNL1       -0.4661
     15 C          60.7563   88.4105   10.9789 C.3     1  UNL1        0.2575
     16 C          61.8473   89.3797   11.3258 C.ar    1  UNL1        0.1338
     17 N          62.3966   89.6346   12.6981 N.ar    1  UNL1       -0.2202
     18 C          63.4694   90.6766   12.5818 C.ar    1  UNL1        0.1687
     19 N          64.3574   91.3214   13.6043 N.ar    1  UNL1       -0.2237
     20 C          65.3590   92.3552   13.1827 C.ar    1  UNL1        0.1119
     21 C          65.4726   92.7443   11.7385 C.ar    1  UNL1        0.0774
     22 CL         66.4743   93.7782   11.3168 Cl      1  UNL1       -0.0806
     23 C          64.5846   92.0995   10.7159 C.ar    1  UNL1        0.0226
     24 C          63.5830   91.0657   11.1376 C.ar    1  UNL1        0.0673
     25 S          62.5805   90.2641   10.3614 S.2     1  UNL1       -0.0655
@<TRIPOS>BOND
     1     9    10   am
     2    10    11    2
     3    10     1    1
     4     1     2   ar
     5     2     3    1
     6     2     4   ar
     7     4     5   ar
     8     5     6   ar
     9     6    14    1
    10    14    15    1
    11    15    16    1
    12    16    17   ar
    13    17    18   ar
    14    18    19   ar
    15    19    20   ar
    16    20    21   ar
    17    21    22    1
    18    21    23   ar
    19    23    24   ar
    20    24    25   ar
    21     6     7   ar
    22     7     8    1
    23     7     1   ar
    24    25    16   ar
    25    24    18   ar
    26     9    12    1
    27     9    13    1
@<TRIPOS>MOLECULE
*****
 25 27 0 0 0
SMALL
GASTEIGER

@<TRIPOS>ATOM
      1 C          65.5431   91.7710   14.0089 C.ar    1  UNL1        0.1109
      2 C          65.7564   92.5967   12.7749 C.ar    1  UNL1        0.1468
      3 F          66.7864   93.6871   12.7709 F       1  UNL1       -0.2039
      4 C          64.9396   92.3320   11.5449 C.ar    1  UNL1        0.0331
      5 C          63.9096   91.2415   11.5489 C.ar    1  UNL1        0.0416
      6 C          63.6963   90.4159   12.7830 C.ar    1  UNL1        0.1667
      7 C          64.5131   90.6806   14.0129 C.ar    1  UNL1        0.1803
      8 F          64.2997   89.8550   15.2469 F       1  UNL1       -0.2007
      9 N          65.7407   92.7310   16.4150 N.am    1  UNL1       -0.3252
     10 C          66.3598   92.0358   15.2388 C.2     1  UNL1        0.2472
     11 O          67.7958   91.6053   15.2927 O.2     1  UNL1       -0.2702
     12 H          66.2768   92.9048   17.2222 H       1  UNL1        0.1453
     13 H          64.7983   93.0136   16.3797 H       1  UNL1        0.1453
     14 O          62.6663   89.3255   12.7870 O.3     1  UNL1       -0.4661
     15 C          62.7191   88.2400   11.7532 C.3     1  UNL1        0.2575
     16 C          62.8618   86.8079   12.1759 C.ar    1  UNL1        0.1338
     17 N          63.5077   86.3217   13.4393 N.ar    1  UNL1       -0.2202
     18 C          63.4287   84.8238   13.4537 C.ar    1  UNL1        0.1687
     19 N          63.8996   83.8034   14.4471 N.ar    1  UNL1       -0.2237
     20 C          63.6758   82.3434   14.1858 C.ar    1  UNL1        0.1119
     21 C          62.9811   81.9039   12.9312 C.ar    1  UNL1        0.0774
     22 CL         62.7572   80.4438   12.6700 Cl      1  UNL1       -0.0806
     23 C          62.5101   82.9243   11.9378 C.ar    1  UNL1        0.0226
     24 C          62.7339   84.3843   12.1990 C.ar    1  UNL1        0.0673
     25 S          62.3836   85.6105   11.4093 S.2     1  UNL1       -0.0655
@<TRIPOS>BOND
     1     9    10   am
     2    10    11    2
     3    10     1    1
     4     1     2   ar
     5     2     3    1
     6     2     4   ar
     7     4     5   ar
     8     5     6   ar
     9     6    14    1
    10    14    15    1
    11    15    16    1
    12    16    17   ar
    13    17    18   ar
    14    18    19   ar
    15    19    20   ar
    16    20    21   ar
    17    21    22    1
    18    21    23   ar
    19    23    24   ar
    20    24    25   ar
    21     6     7   ar
    22     7     8    1
    23     7     1   ar
    24    25    16   ar
    25    24    18   ar
    26     9    12    1
    27     9    13    1
@<TRIPOS>MOLECULE
*****
 25 27 0 0 0
SMALL
GASTEIGER

@<TRIPOS>ATOM
      1 C          65.1608   92.0006   12.4582 C.ar    1  UNL1        0.1109
      2 C          65.5986   91.8028   13.8792 C.ar    1  UNL1        0.1468
      3 F          66.7584   92.5839   14.4223 F       1  UNL1       -0.2039
      4 C          64.8767   90.8240   14.7572 C.ar    1  UNL1        0.0331
      5 C          63.7169   90.0430   14.2141 C.ar    1  UNL1        0.0416
      6 C          63.2791   90.2408   12.7930 C.ar    1  UNL1        0.1667
      7 C          64.0011   91.2195   11.9151 C.ar    1  UNL1        0.1803
      8 F          63.5633   91.4172   10.4942 F       1  UNL1       -0.2007
      9 N          65.7920   94.4496   11.8633 N.am    1  UNL1       -0.3252
     10 C          65.8828   92.9793   11.5803 C.2     1  UNL1        0.2472
     11 O          66.6957   92.4878   10.4194 O.2     1  UNL1       -0.2702
     12 H          66.2659   95.0920   11.2871 H       1  UNL1        0.1453
     13 H          65.2585   94.7722   12.6253 H       1  UNL1        0.1453
     14 O          62.1193   89.4597   12.2500 O.3     1  UNL1       -0.4661
     15 C          62.3574   88.3386   11.2824 C.3     1  UNL1        0.2575
     16 C          62.6208   86.9522   11.7909 C.ar    1  UNL1        0.1338
     17 N          63.3720   86.5992   13.0404 N.ar    1  UNL1       -0.2202
     18 C          63.3946   85.1042   13.1610 C.ar    1  UNL1        0.1687
     19 N          63.9912   84.1891   14.1889 N.ar    1  UNL1       -0.2237
     20 C          63.8506   82.7030   14.0418 C.ar    1  UNL1        0.1119
     21 C          63.1134   82.1320   12.8669 C.ar    1  UNL1        0.0774
     22 CL         62.9728   80.6458   12.7199 Cl      1  UNL1       -0.0806
     23 C          62.5167   83.0471   11.8390 C.ar    1  UNL1        0.0226
     24 C          62.6573   84.5332   11.9861 C.ar    1  UNL1        0.0673
     25 S          62.1791   85.6753   11.1394 S.2     1  UNL1       -0.0655
@<TRIPOS>BOND
     1     9    10   am
     2    10    11    2
     3    10     1    1
     4     1     2   ar
     5     2     3    1
     6     2     4   ar
     7     4     5   ar
     8     5     6   ar
     9     6    14    1
    10    14    15    1
    11    15    16    1
    12    16    17   ar
    13    17    18   ar
    14    18    19   ar
    15    19    20   ar
    16    20    21   ar
    17    21    22    1
    18    21    23   ar
    19    23    24   ar
    20    24    25   ar
    21     6     7   ar
    22     7     8    1
    23     7     1   ar
    24    25    16   ar
    25    24    18   ar
    26     9    12    1
    27     9    13    1
@<TRIPOS>MOLECULE
*****
 25 27 0 0 0
SMALL
GASTEIGER

@<TRIPOS>ATOM
      1 C          61.6313   86.8254    9.5651 C.ar    1  UNL1        0.1109
      2 C          60.5644   86.8336    8.5108 C.ar    1  UNL1        0.1468
      3 F          60.1733   85.5557    7.8296 F       1  UNL1       -0.2039
      4 C          59.8884   88.1197    8.1378 C.ar    1  UNL1        0.0331
      5 C          60.2795   89.3976    8.8190 C.ar    1  UNL1        0.0416
      6 C          61.3465   89.3894    9.8733 C.ar    1  UNL1        0.1667
      7 C          62.0224   88.1033   10.2463 C.ar    1  UNL1        0.1803
      8 F          63.0894   88.0952   11.3005 F       1  UNL1       -0.2007
      9 N          62.1219   84.9656   11.3115 N.am    1  UNL1       -0.3252
     10 C          62.3072   85.5394    9.9381 C.2     1  UNL1        0.2472
     11 O          63.1685   84.8271    8.9376 O.2     1  UNL1       -0.2702
     12 H          62.5656   84.1215   11.5564 H       1  UNL1        0.1453
     13 H          61.5567   85.4331   11.9682 H       1  UNL1        0.1453
     14 O          61.7376   90.6673   10.5545 O.3     1  UNL1       -0.4661
     15 C          63.1240   91.2140   10.3843 C.3     1  UNL1        0.2575
     16 C          63.9396   91.5784   11.5893 C.ar    1  UNL1        0.1338
     17 N          63.6237   91.2163   13.0102 N.ar    1  UNL1       -0.2202
     18 C          64.7032   91.7830   13.8840 C.ar    1  UNL1        0.1687
     19 N          64.9180   91.7424   15.3680 N.ar    1  UNL1       -0.2237
     20 C          66.1160   92.4141   15.9710 C.ar    1  UNL1        0.1119
     21 C          67.0991   93.1264   15.0901 C.ar    1  UNL1        0.0774
     22 CL         68.2971   93.7981   15.6932 Cl      1  UNL1       -0.0806
     23 C          66.8843   93.1670   13.6062 C.ar    1  UNL1        0.0226
     24 C          65.6864   92.4953   13.0031 C.ar    1  UNL1        0.0673
     25 S          65.2144   92.3689   11.5849 S.2     1  UNL1       -0.0655
@<TRIPOS>BOND
     1     9    10   am
     2    10    11    2
     3    10     1    1
     4     1     2   ar
     5     2     3    1
     6     2     4   ar
     7     4     5   ar
     8     5     6   ar
     9     6    14    1
    10    14    15    1
    11    15    16    1
    12    16    17   ar
    13    17    18   ar
    14    18    19   ar
    15    19    20   ar
    16    20    21   ar
    17    21    22    1
    18    21    23   ar
    19    23    24   ar
    20    24    25   ar
    21     6     7   ar
    22     7     8    1
    23     7     1   ar
    24    25    16   ar
    25    24    18   ar
    26     9    12    1
    27     9    13    1
@<TRIPOS>MOLECULE
*****
 25 27 0 0 0
SMALL
GASTEIGER

@<TRIPOS>ATOM
      1 C          63.2820   83.8410   11.5549 C.ar    1  UNL1        0.1109
      2 C          63.6823   83.7350   10.1132 C.ar    1  UNL1        0.1468
      3 F          64.5514   82.6005    9.6576 F       1  UNL1       -0.2039
      4 C          63.2134   84.7634    9.1270 C.ar    1  UNL1        0.0331
      5 C          62.3442   85.8979    9.5826 C.ar    1  UNL1        0.0416
      6 C          61.9440   86.0039   11.0244 C.ar    1  UNL1        0.1667
      7 C          62.4129   84.9755   12.0105 C.ar    1  UNL1        0.1803
      8 F          62.0126   85.0815   13.4522 F       1  UNL1       -0.2007
      9 N          63.3288   81.3812   12.3897 N.am    1  UNL1       -0.3252
     10 C          63.7509   82.8126   12.5410 C.2     1  UNL1        0.2472
     11 O          64.6420   83.2155   13.6784 O.2     1  UNL1       -0.2702
     12 H          63.6365   80.7062   13.0369 H       1  UNL1        0.1453
     13 H          62.7439   81.1167   11.6432 H       1  UNL1        0.1453
     14 O          61.0748   87.1384   11.4800 O.3     1  UNL1       -0.4661
     15 C          61.1202   88.4537   10.7604 C.3     1  UNL1        0.2575
     16 C          62.1710   89.4649   11.1115 C.ar    1  UNL1        0.1338
     17 N          62.7645   90.4796   10.1798 N.ar    1  UNL1       -0.2202
     18 C          63.7732   91.2807   10.9484 C.ar    1  UNL1        0.1687
     19 N          64.6682   92.4162   10.5490 N.ar    1  UNL1       -0.2237
     20 C          65.5933   93.0320   11.5565 C.ar    1  UNL1        0.1119
     21 C          65.6232   92.5124   12.9633 C.ar    1  UNL1        0.0774
     22 CL         66.5484   93.1283   13.9707 Cl      1  UNL1       -0.0806
     23 C          64.7282   91.3769   13.3626 C.ar    1  UNL1        0.0226
     24 C          63.8031   90.7611   12.3552 C.ar    1  UNL1        0.0673
     25 S          62.8130   89.6388   12.4560 S.2     1  UNL1       -0.0655
@<TRIPOS>BOND
     1     9    10   am
     2    10    11    2
     3    10     1    1
     4     1     2   ar
     5     2     3    1
     6     2     4   ar
     7     4     5   ar
     8     5     6   ar
     9     6    14    1
    10    14    15    1
    11    15    16    1
    12    16    17   ar
    13    17    18   ar
    14    18    19   ar
    15    19    20   ar
    16    20    21   ar
    17    21    22    1
    18    21    23   ar
    19    23    24   ar
    20    24    25   ar
    21     6     7   ar
    22     7     8    1
    23     7     1   ar
    24    25    16   ar
    25    24    18   ar
    26     9    12    1
    27     9    13    1
@<TRIPOS>MOLECULE
*****
 25 27 0 0 0
SMALL
GASTEIGER

@<TRIPOS>ATOM
      1 C          65.7228   92.1767   12.7861 C.ar    1  UNL1        0.1109
      2 C          65.5943   92.6243   11.3602 C.ar    1  UNL1        0.1468
      3 F          66.5995   93.5737   10.7786 F       1  UNL1       -0.2039
      4 C          64.4605   92.1225   10.5159 C.ar    1  UNL1        0.0331
      5 C          63.4553   91.1732   11.0975 C.ar    1  UNL1        0.0416
      6 C          63.5839   90.7255   12.5234 C.ar    1  UNL1        0.1667
      7 C          64.7176   91.2273   13.3677 C.ar    1  UNL1        0.1803
      8 F          64.8462   90.7797   14.7935 F       1  UNL1       -0.2007
      9 N          66.6018   93.7027   14.6962 N.am    1  UNL1       -0.3252
     10 C          66.8566   92.6785   13.6303 C.2     1  UNL1        0.2472
     11 O          68.2451   92.1561   13.4087 O.2     1  UNL1       -0.2702
     12 H          67.3460   94.0320   15.2503 H       1  UNL1        0.1453
     13 H          65.6905   94.0456   14.8417 H       1  UNL1        0.1453
     14 O          62.5787   89.7762   13.1050 O.3     1  UNL1       -0.4661
     15 C          61.2376   89.6119   12.4535 C.3     1  UNL1        0.2575
     16 C          61.0846   88.7014   11.2713 C.ar    1  UNL1        0.1338
     17 N          59.8329   88.5003   10.4695 N.ar    1  UNL1       -0.2202
     18 C          60.1310   87.5067    9.3861 C.ar    1  UNL1        0.1687
     19 N          59.2805   86.9247    8.2962 N.ar    1  UNL1       -0.2237
     20 C          59.8659   85.9296    7.3386 C.ar    1  UNL1        0.1119
     21 C          61.3018   85.5166    7.4708 C.ar    1  UNL1        0.0774
     22 CL         61.8872   84.5215    6.5131 Cl      1  UNL1       -0.0806
     23 C          62.1524   86.0986    8.5607 C.ar    1  UNL1        0.0226
     24 C          61.5670   87.0937    9.5183 C.ar    1  UNL1        0.0673
     25 S          62.1563   87.8320   10.6834 S.2     1  UNL1       -0.0655
@<TRIPOS>BOND
     1     9    10   am
     2    10    11    2
     3    10     1    1
     4     1     2   ar
     5     2     3    1
     6     2     4   ar
     7     4     5   ar
     8     5     6   ar
     9     6    14    1
    10    14    15    1
    11    15    16    1
    12    16    17   ar
    13    17    18   ar
    14    18    19   ar
    15    19    20   ar
    16    20    21   ar
    17    21    22    1
    18    21    23   ar
    19    23    24   ar
    20    24    25   ar
    21     6     7   ar
    22     7     8    1
    23     7     1   ar
    24    25    16   ar
    25    24    18   ar
    26     9    12    1
    27     9    13    1
@<TRIPOS>MOLECULE
*****
 25 27 0 0 0
SMALL
GASTEIGER

@<TRIPOS>ATOM
      1 C          63.0840   82.7314   11.7921 C.ar    1  UNL1        0.1109
      2 C          62.6532   81.3119   12.0141 C.ar    1  UNL1        0.1468
      3 F          62.8492   80.2908   10.9329 F       1  UNL1       -0.2039
      4 C          62.0264   80.9134   13.3174 C.ar    1  UNL1        0.0331
      5 C          61.8305   81.9345   14.3986 C.ar    1  UNL1        0.0416
      6 C          62.2613   83.3541   14.1765 C.ar    1  UNL1        0.1667
      7 C          62.8881   83.7525   12.8733 C.ar    1  UNL1        0.1803
      8 F          63.3188   85.1720   12.6513 F       1  UNL1       -0.2007
      9 N          63.1757   84.3067    9.7281 N.am    1  UNL1       -0.3252
     10 C          63.7108   83.1299   10.4889 C.2     1  UNL1        0.2472
     11 O          64.8726   82.3515    9.9464 O.2     1  UNL1       -0.2702
     12 H          63.5871   84.5682    8.8728 H       1  UNL1        0.1453
     13 H          62.4132   84.8176   10.0841 H       1  UNL1        0.1453
     14 O          62.0653   84.3752   15.2577 O.3     1  UNL1       -0.4661
     15 C          63.2551   84.9870   15.9360 C.3     1  UNL1        0.2575
     16 C          63.5045   86.4620   15.8267 C.ar    1  UNL1        0.1338
     17 N          62.9491   87.5198   16.7337 N.ar    1  UNL1       -0.2202
     18 C          63.4544   88.8498   16.2587 C.ar    1  UNL1        0.1687
     19 N          63.2366   90.2451   16.7643 N.ar    1  UNL1       -0.2237
     20 C          63.8864   91.4047   16.0693 C.ar    1  UNL1        0.1119
     21 C          64.7541   91.1689   14.8687 C.ar    1  UNL1        0.0774
     22 CL         65.4040   92.3286   14.1737 Cl      1  UNL1       -0.0806
     23 C          64.9720   89.7737   14.3631 C.ar    1  UNL1        0.0226
     24 C          64.3221   88.6141   15.0581 C.ar    1  UNL1        0.0673
     25 S          64.3531   87.1384   14.7911 S.2     1  UNL1       -0.0655
@<TRIPOS>BOND
     1     9    10   am
     2    10    11    2
     3    10     1    1
     4     1     2   ar
     5     2     3    1
     6     2     4   ar
     7     4     5   ar
     8     5     6   ar
     9     6    14    1
    10    14    15    1
    11    15    16    1
    12    16    17   ar
    13    17    18   ar
    14    18    19   ar
    15    19    20   ar
    16    20    21   ar
    17    21    22    1
    18    21    23   ar
    19    23    24   ar
    20    24    25   ar
    21     6     7   ar
    22     7     8    1
    23     7     1   ar
    24    25    16   ar
    25    24    18   ar
    26     9    12    1
    27     9    13    1
@<TRIPOS>MOLECULE
*****
 25 27 0 0 0
SMALL
GASTEIGER

@<TRIPOS>ATOM
      1 C          63.2223   84.6921   10.9410 C.ar    1  UNL1        0.1109
      2 C          63.0706   84.7564    9.4501 C.ar    1  UNL1        0.1468
      3 F          63.4714   83.5843    8.6042 F       1  UNL1       -0.2039
      4 C          62.5181   85.9928    8.8051 C.ar    1  UNL1        0.0331
      5 C          62.1174   87.1649    9.6510 C.ar    1  UNL1        0.0416
      6 C          62.2691   87.1006   11.1420 C.ar    1  UNL1        0.1667
      7 C          62.8216   85.8641   11.7869 C.ar    1  UNL1        0.1803
      8 F          62.9733   85.7998   13.2778 F       1  UNL1       -0.2007
      9 N          63.0595   82.8321   12.7477 N.am    1  UNL1       -0.3252
     10 C          63.7748   83.4556   11.5860 C.2     1  UNL1        0.2472
     11 O          65.0426   82.8427   11.0693 O.2     1  UNL1       -0.2702
     12 H          63.4221   82.0206   13.1710 H       1  UNL1        0.1453
     13 H          62.2274   83.2344   13.0868 H       1  UNL1        0.1453
     14 O          61.8683   88.2727   11.9879 O.3     1  UNL1       -0.4661
     15 C          62.1781   89.6676   11.5317 C.3     1  UNL1        0.2575
     16 C          63.2640   90.4532   12.2053 C.ar    1  UNL1        0.1338
     17 N          63.9851   91.6350   11.6279 N.ar    1  UNL1       -0.2202
     18 C          64.9862   92.1071   12.6402 C.ar    1  UNL1        0.1687
     19 N          65.9778   93.2325   12.6220 N.ar    1  UNL1       -0.2237
     20 C          66.8670   93.4678   13.8068 C.ar    1  UNL1        0.1119
     21 C          66.7647   92.5777   15.0098 C.ar    1  UNL1        0.0774
     22 CL         67.6541   92.8130   16.1947 Cl      1  UNL1       -0.0806
     23 C          65.7732   91.4523   15.0281 C.ar    1  UNL1        0.0226
     24 C          64.8839   91.2171   13.8433 C.ar    1  UNL1        0.0673
     25 S          63.8196   90.1949   13.5744 S.2     1  UNL1       -0.0655
@<TRIPOS>BOND
     1     9    10   am
     2    10    11    2
     3    10     1    1
     4     1     2   ar
     5     2     3    1
     6     2     4   ar
     7     4     5   ar
     8     5     6   ar
     9     6    14    1
    10    14    15    1
    11    15    16    1
    12    16    17   ar
    13    17    18   ar
    14    18    19   ar
    15    19    20   ar
    16    20    21   ar
    17    21    22    1
    18    21    23   ar
    19    23    24   ar
    20    24    25   ar
    21     6     7   ar
    22     7     8    1
    23     7     1   ar
    24    25    16   ar
    25    24    18   ar
    26     9    12    1
    27     9    13    1
