@<TRIPOS>MOLECULE
*****
 28 31 0 0 0
SMALL
GASTEIGER

@<TRIPOS>ATOM
      1 C          65.7794   93.9185   11.0738 C.2     1  UNL1        0.0919
      2 C          64.8320   93.3072   10.0845 C.2     1  UNL1        0.0183
      3 C          64.0620   92.0723   10.4479 C.2     1  UNL1        0.0511
      4 C          64.2393   91.4487   11.8005 C.2     1  UNL1        0.2322
      5 N          63.6212   90.2393   12.4370 N.2     1  UNL1       -0.0307
      6 C          64.1865   90.1031   13.8197 C.2     1  UNL1        0.3799
      7 N          65.1541   91.2283   14.0377 N.2     1  UNL1       -0.0345
      8 C          65.1867   92.0600   12.7897 C.2     1  UNL1        0.2191
      9 C          65.9568   93.2949   12.4264 C.3     1  UNL1        0.1226
     10 C          63.8443   89.0300   14.8104 C.ar    1  UNL1        0.1446
     11 C          63.8801   87.5885   14.3970 C.ar    1  UNL1        0.0911
     12 N          63.5379   86.5155   15.3877 N.ar    1  UNL1       -0.3032
     13 C          63.1600   86.8839   16.7917 C.ar    1  UNL1        0.0834
     14 C          63.1242   88.3254   17.2051 C.ar    1  UNL1        0.0613
     15 C          63.4664   89.3984   16.2145 C.ar    1  UNL1        0.2061
     16 O          63.4307   90.8399   16.6279 O.2     1  UNL1       -0.2862
     17 C          63.5736   85.0740   14.9743 C.ar    1  UNL1        0.0641
     18 C          62.4644   84.1496   15.3804 C.ar    1  UNL1        0.0175
     19 C          62.5001   82.7081   14.9670 C.ar    1  UNL1        0.0015
     20 C          63.6451   82.1911   14.1475 C.ar    1  UNL1        0.0001
     21 C          64.7543   83.1155   13.7413 C.ar    1  UNL1        0.0015
     22 C          64.7186   84.5570   14.1547 C.ar    1  UNL1        0.0175
     23 S          66.5495   95.1534   10.7104 S.O2    1  UNL1        0.0054
     24 O          67.6514   94.3022   10.1527 O.2     1  UNL1       -0.1689
     25 O          65.4475   96.0046   11.2682 O.2     1  UNL1       -0.1689
     26 C          67.3195   96.3883   10.3471 C.3     1  UNL1        0.1556
     27 C          66.3094   96.6193    7.9646 C.3     1  UNL1        0.0019
     28 C          67.4636   96.7861    8.9080 C.3     1  UNL1        0.0257
@<TRIPOS>BOND
     1    27    28    1
     2    28    26    1
     3    26    23    1
     4    23    24    2
     5    23    25    2
     6    23     1    1
     7     1     2    2
     8     2     3    1
     9     3     4    2
    10     4     5    1
    11     5     6    2
    12     6    10    1
    13    10    11   ar
    14    11    12   ar
    15    12    17    1
    16    17    18   ar
    17    18    19   ar
    18    19    20   ar
    19    20    21   ar
    20    21    22   ar
    21    12    13   ar
    22    13    14   ar
    23    14    15   ar
    24    15    16    2
    25     6     7    1
    26     7     8    2
    27     8     9    1
    28     9     1    1
    29     8     4    1
    30    15    10   ar
    31    22    17   ar
@<TRIPOS>MOLECULE
*****
 28 31 0 0 0
SMALL
GASTEIGER

@<TRIPOS>ATOM
      1 C          64.7381   91.6345   12.3863 C.2     1  UNL1        0.0919
      2 C          63.7921   91.4018   11.2457 C.2     1  UNL1        0.0183
      3 C          63.0872   90.0845   11.1128 C.2     1  UNL1        0.0511
      4 C          63.3283   88.9998   12.1205 C.2     1  UNL1        0.2322
      5 N          62.7813   87.6090   12.2484 N.2     1  UNL1       -0.0307
      6 C          63.3892   86.9821   13.4680 C.2     1  UNL1        0.3799
      7 N          64.3119   87.9855   14.0939 N.2     1  UNL1       -0.0345
      8 C          64.2742   89.2326   13.2610 C.2     1  UNL1        0.2191
      9 C          64.9792   90.5499   13.3939 C.3     1  UNL1        0.1226
     10 C          63.1213   85.5953   13.9731 C.ar    1  UNL1        0.1446
     11 C          63.1294   84.4359   13.0213 C.ar    1  UNL1        0.0911
     12 N          62.8616   83.0492   13.5263 N.ar    1  UNL1       -0.3032
     13 C          62.5857   82.8217   14.9830 C.ar    1  UNL1        0.0834
     14 C          62.5776   83.9811   15.9348 C.ar    1  UNL1        0.0613
     15 C          62.8454   85.3679   15.4298 C.ar    1  UNL1        0.2061
     16 O          62.8373   86.5272   16.3815 O.2     1  UNL1       -0.2862
     17 C          62.8697   81.8898   12.5746 C.ar    1  UNL1        0.0641
     18 C          63.2631   82.0980   11.1422 C.ar    1  UNL1        0.0175
     19 C          63.2712   80.9387   10.1904 C.ar    1  UNL1        0.0015
     20 C          62.8858   79.5711   10.6711 C.ar    1  UNL1        0.0001
     21 C          62.4924   79.3628   12.1035 C.ar    1  UNL1        0.0015
     22 C          62.4843   80.5222   13.0552 C.ar    1  UNL1        0.0175
     23 S          65.4430   92.9519   12.5191 S.O2    1  UNL1        0.0054
     24 O          65.3345   93.1594   11.0375 O.2     1  UNL1       -0.1689
     25 O          65.5516   92.7444   14.0008 O.2     1  UNL1       -0.1689
     26 C          66.1480   94.2692   12.6520 C.3     1  UNL1        0.1556
     27 C          66.1089   96.6322   11.5727 C.3     1  UNL1        0.0019
     28 C          66.3203   95.1521   11.4517 C.3     1  UNL1        0.0257
@<TRIPOS>BOND
     1    27    28    1
     2    28    26    1
     3    26    23    1
     4    23    24    2
     5    23    25    2
     6    23     1    1
     7     1     2    2
     8     2     3    1
     9     3     4    2
    10     4     5    1
    11     5     6    2
    12     6    10    1
    13    10    11   ar
    14    11    12   ar
    15    12    17    1
    16    17    18   ar
    17    18    19   ar
    18    19    20   ar
    19    20    21   ar
    20    21    22   ar
    21    12    13   ar
    22    13    14   ar
    23    14    15   ar
    24    15    16    2
    25     6     7    1
    26     7     8    2
    27     8     9    1
    28     9     1    1
    29     8     4    1
    30    15    10   ar
    31    22    17   ar
@<TRIPOS>MOLECULE
*****
 28 31 0 0 0
SMALL
GASTEIGER

@<TRIPOS>ATOM
      1 C          61.9968   86.0596    9.6387 C.2     1  UNL1        0.0919
      2 C          62.3793   84.9529   10.5762 C.2     1  UNL1        0.0183
      3 C          62.9423   85.2764   11.9284 C.2     1  UNL1        0.0511
      4 C          63.1229   86.7066   12.3431 C.2     1  UNL1        0.2322
      5 N          63.6493   87.3276   13.6029 N.2     1  UNL1       -0.0307
      6 C          63.5923   88.8181   13.4440 C.2     1  UNL1        0.3799
      7 N          63.0306   89.1183   12.0860 N.2     1  UNL1       -0.0345
      8 C          62.7405   87.8133   11.4055 C.2     1  UNL1        0.2191
      9 C          62.1774   87.4898   10.0534 C.3     1  UNL1        0.1226
     10 C          64.0217   89.8306   14.4641 C.ar    1  UNL1        0.1446
     11 C          65.3658   90.4866   14.3501 C.ar    1  UNL1        0.0911
     12 N          65.7951   91.4991   15.3701 N.ar    1  UNL1       -0.3032
     13 C          64.8804   91.8555   16.5042 C.ar    1  UNL1        0.0834
     14 C          63.5363   91.1995   16.6182 C.ar    1  UNL1        0.0613
     15 C          63.1069   90.1870   15.5982 C.ar    1  UNL1        0.2061
     16 O          61.7628   89.5310   15.7122 O.2     1  UNL1       -0.2862
     17 C          67.1392   92.1551   15.2561 C.ar    1  UNL1        0.0641
     18 C          68.0755   91.7600   14.1528 C.ar    1  UNL1        0.0175
     19 C          69.4196   92.4160   14.0388 C.ar    1  UNL1        0.0015
     20 C          69.8274   93.4671   15.0281 C.ar    1  UNL1        0.0001
     21 C          68.8912   93.8622   16.1314 C.ar    1  UNL1        0.0015
     22 C          67.5471   93.2062   16.2454 C.ar    1  UNL1        0.0175
     23 S          61.4338   85.7361    8.2866 S.O2    1  UNL1        0.0054
     24 O          62.7549   85.1570    7.8750 O.2     1  UNL1       -0.1689
     25 O          60.1127   86.3152    8.6981 O.2     1  UNL1       -0.1689
     26 C          60.8708   85.4126    6.9344 C.3     1  UNL1        0.1556
     27 C          62.0317   84.3435    4.8706 C.3     1  UNL1        0.0019
     28 C          61.3450   84.1961    6.1960 C.3     1  UNL1        0.0257
@<TRIPOS>BOND
     1    27    28    1
     2    28    26    1
     3    26    23    1
     4    23    24    2
     5    23    25    2
     6    23     1    1
     7     1     2    2
     8     2     3    1
     9     3     4    2
    10     4     5    1
    11     5     6    2
    12     6    10    1
    13    10    11   ar
    14    11    12   ar
    15    12    17    1
    16    17    18   ar
    17    18    19   ar
    18    19    20   ar
    19    20    21   ar
    20    21    22   ar
    21    12    13   ar
    22    13    14   ar
    23    14    15   ar
    24    15    16    2
    25     6     7    1
    26     7     8    2
    27     8     9    1
    28     9     1    1
    29     8     4    1
    30    15    10   ar
    31    22    17   ar
@<TRIPOS>MOLECULE
*****
 28 31 0 0 0
SMALL
GASTEIGER

@<TRIPOS>ATOM
      1 C          71.2556   73.8402   15.1768 C.2     1  UNL1        0.0919
      2 C          71.3995   73.1157   13.8713 C.2     1  UNL1        0.0183
      3 C          71.7307   73.8783   12.6228 C.2     1  UNL1        0.0511
      4 C          71.9180   75.3655   12.6798 C.2     1  UNL1        0.2322
      5 N          72.2472   76.3770   11.6222 N.2     1  UNL1       -0.0307
      6 C          72.3067   77.7266   12.2741 C.2     1  UNL1        0.3799
      7 N          72.0143   77.5493   13.7346 N.2     1  UNL1       -0.0345
      8 C          71.7741   76.0900   13.9853 C.2     1  UNL1        0.2191
      9 C          71.4429   75.3273   15.2338 C.3     1  UNL1        0.1226
     10 C          72.6061   79.0256   11.5861 C.ar    1  UNL1        0.1446
     11 C          72.2619   79.2035   10.1371 C.ar    1  UNL1        0.0911
     12 N          72.5612   80.5024    9.4491 N.ar    1  UNL1       -0.3032
     13 C          73.2047   81.6233   10.2103 C.ar    1  UNL1        0.0834
     14 C          73.5489   81.4454   11.6594 C.ar    1  UNL1        0.0613
     15 C          73.2496   80.1465   12.3473 C.ar    1  UNL1        0.2061
     16 O          73.5937   79.9685   13.7964 O.2     1  UNL1       -0.2862
     17 C          72.2171   80.6804    8.0000 C.ar    1  UNL1        0.0641
     18 C          71.8711   79.4873    7.1593 C.ar    1  UNL1        0.0175
     19 C          71.5270   79.6652    5.7102 C.ar    1  UNL1        0.0015
     20 C          71.5287   81.0363    5.1018 C.ar    1  UNL1        0.0001
     21 C          71.8746   82.2294    5.9425 C.ar    1  UNL1        0.0015
     22 C          72.2188   82.0514    7.3916 C.ar    1  UNL1        0.0175
     23 S          70.9244   73.0776   16.4252 S.O2    1  UNL1        0.0054
     24 O          69.5204   73.6030   16.3737 O.2     1  UNL1       -0.1689
     25 O          72.3284   72.5522   16.4768 O.2     1  UNL1       -0.1689
     26 C          70.5932   72.3149   17.6737 C.3     1  UNL1        0.1556
     27 C          71.3474   73.5770   19.8157 C.3     1  UNL1        0.0019
     28 C          71.4864   72.4174   18.8744 C.3     1  UNL1        0.0257
@<TRIPOS>BOND
     1    27    28    1
     2    28    26    1
     3    26    23    1
     4    23    24    2
     5    23    25    2
     6    23     1    1
     7     1     2    2
     8     2     3    1
     9     3     4    2
    10     4     5    1
    11     5     6    2
    12     6    10    1
    13    10    11   ar
    14    11    12   ar
    15    12    17    1
    16    17    18   ar
    17    18    19   ar
    18    19    20   ar
    19    20    21   ar
    20    21    22   ar
    21    12    13   ar
    22    13    14   ar
    23    14    15   ar
    24    15    16    2
    25     6     7    1
    26     7     8    2
    27     8     9    1
    28     9     1    1
    29     8     4    1
    30    15    10   ar
    31    22    17   ar
@<TRIPOS>MOLECULE
*****
 28 31 0 0 0
SMALL
GASTEIGER

@<TRIPOS>ATOM
      1 C          45.6391   70.5980   15.2988 C.2     1  UNL1        0.0919
      2 C          46.5215   69.8958   16.2879 C.2     1  UNL1        0.0183
      3 C          46.8027   70.5242   17.6206 C.2     1  UNL1        0.0511
      4 C          46.2015   71.8548   17.9642 C.2     1  UNL1        0.2322
      5 N          46.2983   72.7134   19.1903 N.2     1  UNL1       -0.0307
      6 C          45.4758   73.9463   18.9590 C.2     1  UNL1        0.3799
      7 N          44.8705   73.8496   17.5900 N.2     1  UNL1       -0.0345
      8 C          45.3190   72.5569   16.9752 C.2     1  UNL1        0.2191
      9 C          45.0379   71.9285   15.6425 C.3     1  UNL1        0.1226
     10 C          45.2910   75.0773   19.9269 C.ar    1  UNL1        0.1446
     11 C          45.6791   76.4719   19.5337 C.ar    1  UNL1        0.0911
     12 N          45.4943   77.6029   20.5015 N.ar    1  UNL1       -0.3032
     13 C          44.9214   77.3393   21.8625 C.ar    1  UNL1        0.0834
     14 C          44.5333   75.9448   22.2556 C.ar    1  UNL1        0.0613
     15 C          44.7181   74.8138   21.2878 C.ar    1  UNL1        0.2061
     16 O          44.3300   73.4192   21.6810 O.2     1  UNL1       -0.2862
     17 C          45.8824   78.9974   20.1083 C.ar    1  UNL1        0.0641
     18 C          47.1908   79.2454   19.4179 C.ar    1  UNL1        0.0175
     19 C          47.5789   80.6399   19.0247 C.ar    1  UNL1        0.0015
     20 C          46.6587   81.7865   19.3219 C.ar    1  UNL1        0.0001
     21 C          45.3503   81.5386   20.0124 C.ar    1  UNL1        0.0015
     22 C          44.9622   80.1440   20.4056 C.ar    1  UNL1        0.0175
     23 S          45.3580   69.9696   13.9661 S.O2    1  UNL1        0.0054
     24 O          44.0385   70.6808   13.9092 O.2     1  UNL1       -0.1689
     25 O          46.6774   69.2584   14.0231 O.2     1  UNL1       -0.1689
     26 C          45.0768   69.3412   12.6335 C.3     1  UNL1        0.1556
     27 C          43.6330   69.8294   10.5294 C.3     1  UNL1        0.0019
     28 C          43.7317   69.5126   11.9923 C.3     1  UNL1        0.0257
@<TRIPOS>BOND
     1    27    28    1
     2    28    26    1
     3    26    23    1
     4    23    24    2
     5    23    25    2
     6    23     1    1
     7     1     2    2
     8     2     3    1
     9     3     4    2
    10     4     5    1
    11     5     6    2
    12     6    10    1
    13    10    11   ar
    14    11    12   ar
    15    12    17    1
    16    17    18   ar
    17    18    19   ar
    18    19    20   ar
    19    20    21   ar
    20    21    22   ar
    21    12    13   ar
    22    13    14   ar
    23    14    15   ar
    24    15    16    2
    25     6     7    1
    26     7     8    2
    27     8     9    1
    28     9     1    1
    29     8     4    1
    30    15    10   ar
    31    22    17   ar
@<TRIPOS>MOLECULE
*****
 28 31 0 0 0
SMALL
GASTEIGER

@<TRIPOS>ATOM
      1 C          60.3183   88.6769    8.6509 C.2     1  UNL1        0.0919
      2 C          60.8880   87.3125    8.9034 C.2     1  UNL1        0.0183
      3 C          61.7512   87.0710   10.1062 C.2     1  UNL1        0.0511
      4 C          62.0445   88.1939   11.0565 C.2     1  UNL1        0.2322
      5 N          62.8556   88.2563   12.3167 N.2     1  UNL1       -0.0307
      6 C          62.7871   89.6593   12.8431 C.2     1  UNL1        0.3799
      7 N          61.9338   90.4640   11.9081 N.2     1  UNL1       -0.0345
      8 C          61.4748   89.5583   10.8039 C.2     1  UNL1        0.2191
      9 C          60.6117   89.7998    9.6011 C.3     1  UNL1        0.1226
     10 C          63.4549   90.1682   14.0862 C.ar    1  UNL1        0.1446
     11 C          64.8013   90.8236   13.9996 C.ar    1  UNL1        0.0911
     12 N          65.4690   91.3325   15.2427 N.ar    1  UNL1       -0.3032
     13 C          64.7903   91.1859   16.5722 C.ar    1  UNL1        0.0834
     14 C          63.4439   90.5304   16.6588 C.ar    1  UNL1        0.0613
     15 C          62.7762   90.0216   15.4158 C.ar    1  UNL1        0.2061
     16 O          61.4297   89.3661   15.5023 O.2     1  UNL1       -0.2862
     17 C          66.8154   91.9880   15.1561 C.ar    1  UNL1        0.0641
     18 C          67.2096   93.0276   16.1630 C.ar    1  UNL1        0.0175
     19 C          68.5560   93.6830   16.0764 C.ar    1  UNL1        0.0015
     20 C          69.5083   93.2989   14.9830 C.ar    1  UNL1        0.0001
     21 C          69.1141   92.2594   13.9761 C.ar    1  UNL1        0.0015
     22 C          67.7677   91.6039   14.0627 C.ar    1  UNL1        0.0175
     23 S          59.4552   88.9184    7.4481 S.O2    1  UNL1        0.0054
     24 O          60.2015   90.1890    7.1677 O.2     1  UNL1       -0.1689
     25 O          58.7090   87.6478    7.7284 O.2     1  UNL1       -0.1689
     26 C          58.5921   89.1599    6.2453 C.3     1  UNL1        0.1556
     27 C          57.4586   91.1955    5.0957 C.3     1  UNL1        0.0019
     28 C          58.6999   90.4526    5.4921 C.3     1  UNL1        0.0257
@<TRIPOS>BOND
     1    27    28    1
     2    28    26    1
     3    26    23    1
     4    23    24    2
     5    23    25    2
     6    23     1    1
     7     1     2    2
     8     2     3    1
     9     3     4    2
    10     4     5    1
    11     5     6    2
    12     6    10    1
    13    10    11   ar
    14    11    12   ar
    15    12    17    1
    16    17    18   ar
    17    18    19   ar
    18    19    20   ar
    19    20    21   ar
    20    21    22   ar
    21    12    13   ar
    22    13    14   ar
    23    14    15   ar
    24    15    16    2
    25     6     7    1
    26     7     8    2
    27     8     9    1
    28     9     1    1
    29     8     4    1
    30    15    10   ar
    31    22    17   ar
@<TRIPOS>MOLECULE
*****
 28 31 0 0 0
SMALL
GASTEIGER

@<TRIPOS>ATOM
      1 C          59.4566   89.4130    7.0381 C.2     1  UNL1        0.0919
      2 C          59.0161   87.9850    7.1674 C.2     1  UNL1        0.0183
      3 C          59.5360   87.1386    8.2914 C.2     1  UNL1        0.0511
      4 C          60.4964   87.7202    9.2860 C.2     1  UNL1        0.2322
      5 N          61.1731   87.1336   10.4893 N.2     1  UNL1       -0.0307
      6 C          62.0319   88.1991   11.1036 C.2     1  UNL1        0.3799
      7 N          61.8859   89.4442   10.2800 N.2     1  UNL1       -0.0345
      8 C          60.9369   89.1482    9.1566 C.2     1  UNL1        0.2191
      9 C          60.4170   89.9946    8.0327 C.3     1  UNL1        0.1226
     10 C          62.8866   88.0462   12.3268 C.ar    1  UNL1        0.1446
     11 C          63.4712   89.2582   12.9895 C.ar    1  UNL1        0.0911
     12 N          64.3259   89.1054   14.2127 N.ar    1  UNL1       -0.3032
     13 C          64.5960   87.7405   14.7731 C.ar    1  UNL1        0.0834
     14 C          64.0114   86.5285   14.1104 C.ar    1  UNL1        0.0613
     15 C          63.1567   86.6813   12.8872 C.ar    1  UNL1        0.2061
     16 O          62.5721   85.4693   12.2245 O.2     1  UNL1       -0.2862
     17 C          64.9104   90.3174   14.8754 C.ar    1  UNL1        0.0641
     18 C          64.1450   91.0251   15.9539 C.ar    1  UNL1        0.0175
     19 C          64.7295   92.2372   16.6166 C.ar    1  UNL1        0.0015
     20 C          66.0796   92.7415   16.2009 C.ar    1  UNL1        0.0001
     21 C          66.8451   92.0339   15.1224 C.ar    1  UNL1        0.0015
     22 C          66.2605   90.8218   14.4597 C.ar    1  UNL1        0.0175
     23 S          58.9366   90.2594    5.9141 S.O2    1  UNL1        0.0054
     24 O          57.5299   89.9231    6.3116 O.2     1  UNL1       -0.1689
     25 O          60.3434   90.5956    5.5166 O.2     1  UNL1       -0.1689
     26 C          58.4167   91.1058    4.7901 C.3     1  UNL1        0.1556
     27 C          59.5723   92.6566    3.0554 C.3     1  UNL1        0.0019
     28 C          59.0916   92.4023    4.4533 C.3     1  UNL1        0.0257
@<TRIPOS>BOND
     1    27    28    1
     2    28    26    1
     3    26    23    1
     4    23    24    2
     5    23    25    2
     6    23     1    1
     7     1     2    2
     8     2     3    1
     9     3     4    2
    10     4     5    1
    11     5     6    2
    12     6    10    1
    13    10    11   ar
    14    11    12   ar
    15    12    17    1
    16    17    18   ar
    17    18    19   ar
    18    19    20   ar
    19    20    21   ar
    20    21    22   ar
    21    12    13   ar
    22    13    14   ar
    23    14    15   ar
    24    15    16    2
    25     6     7    1
    26     7     8    2
    27     8     9    1
    28     9     1    1
    29     8     4    1
    30    15    10   ar
    31    22    17   ar
@<TRIPOS>MOLECULE
*****
 28 31 0 0 0
SMALL
GASTEIGER

@<TRIPOS>ATOM
      1 C          59.2734   89.7285    6.5950 C.2     1  UNL1        0.0919
      2 C          58.5173   88.4340    6.5455 C.2     1  UNL1        0.0183
      3 C          58.8285   87.3455    7.5295 C.2     1  UNL1        0.0511
      4 C          59.8958   87.5516    8.5631 C.2     1  UNL1        0.2322
      5 N          60.4191   86.6670    9.6557 N.2     1  UNL1       -0.0307
      6 C          61.4986   87.4149   10.3805 C.2     1  UNL1        0.3799
      7 N          61.6425   88.7616    9.7359 N.2     1  UNL1       -0.0345
      8 C          60.6519   88.8461    8.6127 C.2     1  UNL1        0.2191
      9 C          60.3407   89.9346    7.6286 C.3     1  UNL1        0.1226
     10 C          62.2945   86.9054   11.5455 C.ar    1  UNL1        0.1446
     11 C          62.2995   85.4403   11.8670 C.ar    1  UNL1        0.0911
     12 N          63.0953   84.9308   13.0319 N.ar    1  UNL1       -0.3032
     13 C          63.8862   85.8864   13.8752 C.ar    1  UNL1        0.0834
     14 C          63.8812   87.3515   13.5537 C.ar    1  UNL1        0.0613
     15 C          63.0854   87.8610   12.3888 C.ar    1  UNL1        0.2061
     16 O          63.0804   89.3261   12.0673 O.2     1  UNL1       -0.2862
     17 C          63.1003   83.4656   13.3534 C.ar    1  UNL1        0.0641
     18 C          64.2216   82.5952   12.8687 C.ar    1  UNL1        0.0175
     19 C          64.2265   81.1301   13.1902 C.ar    1  UNL1        0.0015
     20 C          63.1102   80.5354   13.9965 C.ar    1  UNL1        0.0001
     21 C          61.9889   81.4058   14.4812 C.ar    1  UNL1        0.0015
     22 C          61.9840   82.8709   14.1597 C.ar    1  UNL1        0.0175
     23 S          58.9622   90.8170    5.6109 S.O2    1  UNL1        0.0054
     24 O          57.5023   90.6888    5.9308 O.2     1  UNL1       -0.1689
     25 O          60.4221   90.9452    5.2911 O.2     1  UNL1       -0.1689
     26 C          58.6510   91.9054    4.6269 C.3     1  UNL1        0.1556
     27 C          59.6846   92.8837    2.4533 C.3     1  UNL1        0.0019
     28 C          59.7657   92.6266    3.9288 C.3     1  UNL1        0.0257
@<TRIPOS>BOND
     1    27    28    1
     2    28    26    1
     3    26    23    1
     4    23    24    2
     5    23    25    2
     6    23     1    1
     7     1     2    2
     8     2     3    1
     9     3     4    2
    10     4     5    1
    11     5     6    2
    12     6    10    1
    13    10    11   ar
    14    11    12   ar
    15    12    17    1
    16    17    18   ar
    17    18    19   ar
    18    19    20   ar
    19    20    21   ar
    20    21    22   ar
    21    12    13   ar
    22    13    14   ar
    23    14    15   ar
    24    15    16    2
    25     6     7    1
    26     7     8    2
    27     8     9    1
    28     9     1    1
    29     8     4    1
    30    15    10   ar
    31    22    17   ar
@<TRIPOS>MOLECULE
*****
 28 31 0 0 0
SMALL
GASTEIGER

@<TRIPOS>ATOM
      1 C          71.9179   73.4698   15.6012 C.2     1  UNL1        0.0919
      2 C          70.5737   74.0659   15.8975 C.2     1  UNL1        0.0183
      3 C          70.1923   75.3889   15.3024 C.2     1  UNL1        0.0511
      4 C          71.1551   76.1159   14.4111 C.2     1  UNL1        0.2322
      5 N          71.0590   77.4257   13.6864 N.2     1  UNL1       -0.0307
      6 C          72.3438   77.6391   12.9422 C.2     1  UNL1        0.3799
      7 N          73.2340   76.4612   13.2070 N.2     1  UNL1       -0.0345
      8 C          72.4993   75.5198   14.1148 C.2     1  UNL1        0.2191
      9 C          72.8807   74.1968   14.7099 C.3     1  UNL1        0.1226
     10 C          72.6794   78.8227   12.0840 C.ar    1  UNL1        0.1446
     11 C          72.3971   78.7854   10.6113 C.ar    1  UNL1        0.0911
     12 N          72.7327   79.9689    9.7530 N.ar    1  UNL1       -0.3032
     13 C          73.3506   81.1898   10.3675 C.ar    1  UNL1        0.0834
     14 C          73.6329   81.2271   11.8402 C.ar    1  UNL1        0.0613
     15 C          73.2973   80.0436   12.6985 C.ar    1  UNL1        0.2061
     16 O          73.5796   80.0809   14.1712 O.2     1  UNL1       -0.2862
     17 C          72.4504   79.9316    8.2803 C.ar    1  UNL1        0.0641
     18 C          71.4393   80.8669    7.6865 C.ar    1  UNL1        0.0175
     19 C          71.1570   80.8296    6.2138 C.ar    1  UNL1        0.0015
     20 C          71.8858   79.8569    5.3349 C.ar    1  UNL1        0.0001
     21 C          72.8969   78.9215    5.9286 C.ar    1  UNL1        0.0015
     22 C          73.1792   78.9588    7.4014 C.ar    1  UNL1        0.0175
     23 S          72.2993   72.1468   16.1963 S.O2    1  UNL1        0.0054
     24 O          73.4052   72.8102   16.9625 O.2     1  UNL1       -0.1689
     25 O          71.1935   71.4834   15.4302 O.2     1  UNL1       -0.1689
     26 C          72.6808   70.8238   16.7914 C.3     1  UNL1        0.1556
     27 C          71.8613   68.3644   16.9644 C.3     1  UNL1        0.0019
     28 C          71.6171   69.8317   17.1580 C.3     1  UNL1        0.0257
@<TRIPOS>BOND
     1    27    28    1
     2    28    26    1
     3    26    23    1
     4    23    24    2
     5    23    25    2
     6    23     1    1
     7     1     2    2
     8     2     3    1
     9     3     4    2
    10     4     5    1
    11     5     6    2
    12     6    10    1
    13    10    11   ar
    14    11    12   ar
    15    12    17    1
    16    17    18   ar
    17    18    19   ar
    18    19    20   ar
    19    20    21   ar
    20    21    22   ar
    21    12    13   ar
    22    13    14   ar
    23    14    15   ar
    24    15    16    2
    25     6     7    1
    26     7     8    2
    27     8     9    1
    28     9     1    1
    29     8     4    1
    30    15    10   ar
    31    22    17   ar
