@<TRIPOS>MOLECULE
*****
 12 13 0 0 0
SMALL
GASTEIGER

@<TRIPOS>ATOM
      1 C          62.7198   86.6778   17.9039 C.3     1  UNL1        0.0538
      2 C          63.0826   86.0334   16.5988 C.ar    1  UNL1        0.0786
      3 C          62.6489   84.6742   16.1360 C.ar    1  UNL1        0.0962
      4 N          63.2411   84.4358   14.7786 N.ar    1  UNL1       -0.2852
      5 C          64.0408   85.6478   14.4025 C.ar    1  UNL1        0.1825
      6 N          63.9430   86.6352   15.5274 N.ar    1  UNL1       -0.2280
      7 C          63.0644   83.2021   13.9438 C.ar    1  UNL1        0.0846
      8 C          62.0958   82.1396   14.3714 C.ar    1  UNL1        0.0207
      9 C          61.9192   80.9060   13.5366 C.ar    1  UNL1        0.0222
     10 C          62.7113   80.7347   12.2744 C.ar    1  UNL1        0.0990
     11 N          63.6799   81.7972   11.8468 N.ar    1  UNL1       -0.2408
     12 C          63.8565   83.0309   12.6816 C.ar    1  UNL1        0.1163
@<TRIPOS>BOND
     1     1     2    1
     2     2     3   ar
     3     3     4   ar
     4     4     7    1
     5     7     8   ar
     6     8     9   ar
     7     9    10   ar
     8    10    11   ar
     9    11    12   ar
    10     4     5   ar
    11     5     6   ar
    12     6     2   ar
    13    12     7   ar
@<TRIPOS>MOLECULE
*****
 12 13 0 0 0
SMALL
GASTEIGER

@<TRIPOS>ATOM
      1 C          67.9398   92.3251   16.0455 C.3     1  UNL1        0.0538
      2 C          67.0648   92.3649   14.8278 C.ar    1  UNL1        0.0786
      3 C          65.9144   91.4468   14.5384 C.ar    1  UNL1        0.0962
      4 N          65.3252   91.8442   13.2175 N.ar    1  UNL1       -0.2852
      5 C          66.1114   93.0079   12.6905 C.ar    1  UNL1        0.1825
      6 N          67.1866   93.3297   13.6857 N.ar    1  UNL1       -0.2280
      7 C          64.1551   91.1923   12.5421 C.ar    1  UNL1        0.0846
      8 C          63.9078   91.4242   11.0810 C.ar    1  UNL1        0.0207
      9 C          62.7378   90.7724   10.4057 C.ar    1  UNL1        0.0222
     10 C          61.8151   89.8886   11.1915 C.ar    1  UNL1        0.0990
     11 N          62.0624   89.6567   12.6527 N.ar    1  UNL1       -0.2408
     12 C          63.2324   90.3086   13.3280 C.ar    1  UNL1        0.1163
@<TRIPOS>BOND
     1     1     2    1
     2     2     3   ar
     3     3     4   ar
     4     4     7    1
     5     7     8   ar
     6     8     9   ar
     7     9    10   ar
     8    10    11   ar
     9    11    12   ar
    10     4     5   ar
    11     5     6   ar
    12     6     2   ar
    13    12     7   ar
@<TRIPOS>MOLECULE
*****
 12 13 0 0 0
SMALL
GASTEIGER

@<TRIPOS>ATOM
      1 C          67.3534   95.6427    8.2528 C.3     1  UNL1        0.0538
      2 C          67.3768   94.4494    9.1613 C.ar    1  UNL1        0.0786
      3 C          66.5911   94.2911   10.4292 C.ar    1  UNL1        0.0962
      4 N          66.9188   92.9488   11.0131 N.ar    1  UNL1       -0.2852
      5 C          67.9070   92.2775   10.1060 C.ar    1  UNL1        0.1825
      6 N          68.1901   93.2049    8.9616 N.ar    1  UNL1       -0.2280
      7 C          66.3568   92.3780   12.2814 C.ar    1  UNL1        0.0846
      8 C          67.2657   92.0790   13.4366 C.ar    1  UNL1        0.0207
      9 C          66.7037   91.5082   14.7048 C.ar    1  UNL1        0.0222
     10 C          65.2329   91.2364   14.8177 C.ar    1  UNL1        0.0990
     11 N          64.3240   91.5353   13.6625 N.ar    1  UNL1       -0.2408
     12 C          64.8860   92.1061   12.3943 C.ar    1  UNL1        0.1163
@<TRIPOS>BOND
     1     1     2    1
     2     2     3   ar
     3     3     4   ar
     4     4     7    1
     5     7     8   ar
     6     8     9   ar
     7     9    10   ar
     8    10    11   ar
     9    11    12   ar
    10     4     5   ar
    11     5     6   ar
    12     6     2   ar
    13    12     7   ar
@<TRIPOS>MOLECULE
*****
 12 13 0 0 0
SMALL
GASTEIGER

@<TRIPOS>ATOM
      1 C          66.3824   93.5194   10.3682 C.3     1  UNL1        0.0538
      2 C          66.3920   92.8084   11.6889 C.ar    1  UNL1        0.0786
      3 C          65.2166   92.1413   12.3397 C.ar    1  UNL1        0.0962
      4 N          65.6768   91.5602   13.6437 N.ar    1  UNL1       -0.2852
      5 C          67.1366   91.8681   13.7989 C.ar    1  UNL1        0.1825
      6 N          67.5786   92.6395   12.5908 N.ar    1  UNL1       -0.2280
      7 C          64.8264   90.8039   14.6210 C.ar    1  UNL1        0.0846
      8 C          64.5576   89.3436   14.4082 C.ar    1  UNL1        0.0207
      9 C          63.7073   88.5874   15.3855 C.ar    1  UNL1        0.0222
     10 C          63.1258   89.2915   16.5755 C.ar    1  UNL1        0.0990
     11 N          63.3946   90.7518   16.7882 N.ar    1  UNL1       -0.2408
     12 C          64.2449   91.5080   15.8110 C.ar    1  UNL1        0.1163
@<TRIPOS>BOND
     1     1     2    1
     2     2     3   ar
     3     3     4   ar
     4     4     7    1
     5     7     8   ar
     6     8     9   ar
     7     9    10   ar
     8    10    11   ar
     9    11    12   ar
    10     4     5   ar
    11     5     6   ar
    12     6     2   ar
    13    12     7   ar
@<TRIPOS>MOLECULE
*****
 12 13 0 0 0
SMALL
GASTEIGER

@<TRIPOS>ATOM
      1 C          64.5763   90.4399   14.3750 C.3     1  UNL1        0.0538
      2 C          65.2659   91.6817   13.8928 C.ar    1  UNL1        0.0786
      3 C          65.3856   92.1259   12.4651 C.ar    1  UNL1        0.0962
      4 N          66.1505   93.4160   12.4436 N.ar    1  UNL1       -0.2852
      5 C          66.5035   93.7693   13.8580 C.ar    1  UNL1        0.1825
      6 N          65.9568   92.6974   14.7537 N.ar    1  UNL1       -0.2280
      7 C          66.5008   94.2131   11.2220 C.ar    1  UNL1        0.0846
      8 C          67.1889   93.5501   10.0658 C.ar    1  UNL1        0.0207
      9 C          67.5392   94.3471    8.8444 C.ar    1  UNL1        0.0222
     10 C          67.2015   95.8071    8.7791 C.ar    1  UNL1        0.0990
     11 N          66.5134   96.4701    9.9354 N.ar    1  UNL1       -0.2408
     12 C          66.1630   95.6731   11.1568 C.ar    1  UNL1        0.1163
@<TRIPOS>BOND
     1     1     2    1
     2     2     3   ar
     3     3     4   ar
     4     4     7    1
     5     7     8   ar
     6     8     9   ar
     7     9    10   ar
     8    10    11   ar
     9    11    12   ar
    10     4     5   ar
    11     5     6   ar
    12     6     2   ar
    13    12     7   ar
@<TRIPOS>MOLECULE
*****
 12 13 0 0 0
SMALL
GASTEIGER

@<TRIPOS>ATOM
      1 C          62.0477   89.7684   11.9539 C.3     1  UNL1        0.0538
      2 C          62.9667   90.1685   13.0698 C.ar    1  UNL1        0.0786
      3 C          64.2727   90.8911   12.9204 C.ar    1  UNL1        0.0962
      4 N          64.8542   91.0854   14.2894 N.ar    1  UNL1       -0.2852
      5 C          63.9077   90.4830   15.2849 C.ar    1  UNL1        0.1825
      6 N          62.7411   89.9162   14.5312 N.ar    1  UNL1       -0.2280
      7 C          66.1541   91.7633   14.6070 C.ar    1  UNL1        0.0846
      8 C          66.3426   92.4406   15.9320 C.ar    1  UNL1        0.0207
      9 C          67.6424   93.1184   16.2496 C.ar    1  UNL1        0.0222
     10 C          68.7538   93.1189   15.2422 C.ar    1  UNL1        0.0990
     11 N          68.5653   92.4416   13.9172 N.ar    1  UNL1       -0.2408
     12 C          67.2655   91.7638   13.5996 C.ar    1  UNL1        0.1163
@<TRIPOS>BOND
     1     1     2    1
     2     2     3   ar
     3     3     4   ar
     4     4     7    1
     5     7     8   ar
     6     8     9   ar
     7     9    10   ar
     8    10    11   ar
     9    11    12   ar
    10     4     5   ar
    11     5     6   ar
    12     6     2   ar
    13    12     7   ar
@<TRIPOS>MOLECULE
*****
 12 13 0 0 0
SMALL
GASTEIGER

@<TRIPOS>ATOM
      1 C          67.6189   96.1502    8.5395 C.3     1  UNL1        0.0538
      2 C          67.3788   94.8560    9.2586 C.ar    1  UNL1        0.0786
      3 C          66.1448   94.4915   10.0296 C.ar    1  UNL1        0.0962
      4 N          66.3338   93.1092   10.5805 N.ar    1  UNL1       -0.2852
      5 C          67.6846   92.6194   10.1501 C.ar    1  UNL1        0.1825
      6 N          68.3305   93.6989    9.3331 N.ar    1  UNL1       -0.2280
      7 C          65.3454   92.3500   11.4154 C.ar    1  UNL1        0.0846
      8 C          64.1975   91.6414   10.7596 C.ar    1  UNL1        0.0207
      9 C          63.2092   90.8823   11.5944 C.ar    1  UNL1        0.0222
     10 C          63.3688   90.8318   13.0851 C.ar    1  UNL1        0.0990
     11 N          64.5167   91.5405   13.7409 N.ar    1  UNL1       -0.2408
     12 C          65.5050   92.2996   12.9060 C.ar    1  UNL1        0.1163
@<TRIPOS>BOND
     1     1     2    1
     2     2     3   ar
     3     3     4   ar
     4     4     7    1
     5     7     8   ar
     6     8     9   ar
     7     9    10   ar
     8    10    11   ar
     9    11    12   ar
    10     4     5   ar
    11     5     6   ar
    12     6     2   ar
    13    12     7   ar
@<TRIPOS>MOLECULE
*****
 12 13 0 0 0
SMALL
GASTEIGER

@<TRIPOS>ATOM
      1 C          61.9309   87.7259   10.2081 C.3     1  UNL1        0.0538
      2 C          62.3565   86.7187   11.2349 C.ar    1  UNL1        0.0786
      3 C          62.0727   85.2464   11.1964 C.ar    1  UNL1        0.0962
      4 N          62.6815   84.6248   12.4183 N.ar    1  UNL1       -0.2852
      5 C          63.3416   85.7130   13.2120 C.ar    1  UNL1        0.1825
      6 N          63.1407   87.0071   12.4807 N.ar    1  UNL1       -0.2280
      7 C          62.6379   83.1702   12.7824 C.ar    1  UNL1        0.0846
      8 C          62.8462   82.1260   11.7260 C.ar    1  UNL1        0.0207
      9 C          62.8026   80.6716   12.0902 C.ar    1  UNL1        0.0222
     10 C          62.5506   80.2614   13.5108 C.ar    1  UNL1        0.0990
     11 N          62.3422   81.3056   14.5673 N.ar    1  UNL1       -0.2408
     12 C          62.3859   82.7600   14.2031 C.ar    1  UNL1        0.1163
@<TRIPOS>BOND
     1     1     2    1
     2     2     3   ar
     3     3     4   ar
     4     4     7    1
     5     7     8   ar
     6     8     9   ar
     7     9    10   ar
     8    10    11   ar
     9    11    12   ar
    10     4     5   ar
    11     5     6   ar
    12     6     2   ar
    13    12     7   ar
@<TRIPOS>MOLECULE
*****
 12 13 0 0 0
SMALL
GASTEIGER

@<TRIPOS>ATOM
      1 C          59.2538   87.7165    7.6560 C.3     1  UNL1        0.0538
      2 C          60.0282   87.2478    8.8520 C.ar    1  UNL1        0.0786
      3 C          60.9591   86.0724    8.8944 C.ar    1  UNL1        0.0962
      4 N          61.5139   85.9704   10.2843 N.ar    1  UNL1       -0.2852
      5 C          60.9259   87.0827   11.1010 C.ar    1  UNL1        0.1825
      6 N          60.0076   87.8722   10.2158 N.ar    1  UNL1       -0.2280
      7 C          62.4860   84.9373   10.7720 C.ar    1  UNL1        0.0846
      8 C          63.3020   84.1519    9.7885 C.ar    1  UNL1        0.0207
      9 C          64.2741   83.1189   10.2762 C.ar    1  UNL1        0.0222
     10 C          64.4302   82.8713   11.7473 C.ar    1  UNL1        0.0990
     11 N          63.6142   83.6566   12.7308 N.ar    1  UNL1       -0.2408
     12 C          62.6421   84.6896   12.2432 C.ar    1  UNL1        0.1163
@<TRIPOS>BOND
     1     1     2    1
     2     2     3   ar
     3     3     4   ar
     4     4     7    1
     5     7     8   ar
     6     8     9   ar
     7     9    10   ar
     8    10    11   ar
     9    11    12   ar
    10     4     5   ar
    11     5     6   ar
    12     6     2   ar
    13    12     7   ar
