@<TRIPOS>MOLECULE
*****
 35 37 0 0 0
SMALL
GASTEIGER

@<TRIPOS>ATOM
      1 C          63.0797   90.7743   11.7439 C.3     1  UNL1        0.1695
      2 C          64.2568   91.5836   11.2862 C.3     1  UNL1        0.1271
      3 N          65.3314   92.2225   12.1150 N.am    1  UNL1       -0.2553
      4 C          66.3821   92.9733   11.3518 C.2     1  UNL1        0.2294
      5 O          67.5023   93.6498   12.0851 O.2     1  UNL1       -0.2745
      6 C          65.4944   92.2100   13.6061 C.ar    1  UNL1        0.0676
      7 C          66.7125   92.9755   14.0307 C.ar    1  UNL1        0.0162
      8 C          67.0591   93.0864   15.4858 C.ar    1  UNL1        0.0014
      9 C          66.1877   92.4318   16.5164 C.ar    1  UNL1        0.0014
     10 C          64.9696   91.6663   16.0918 C.ar    1  UNL1        0.0162
     11 C          64.6230   91.5554   14.6367 C.ar    1  UNL1        0.0676
     12 N          63.3733   90.7517   14.4307 N.am    1  UNL1       -0.2558
     13 C          62.6865   90.4040   13.1433 C.2     1  UNL1        0.2490
     14 O          61.4419   89.5768   13.2724 O.2     1  UNL1       -0.2727
     15 C          62.0563   88.7941   10.4092 C.2     1  UNL1        0.2371
     16 O          62.8398   87.8258   11.2451 O.2     1  UNL1       -0.2737
     17 N          62.1763   90.2683   10.6586 N.am    1  UNL1       -0.2959
     18 H          61.6621   90.9038   10.1100 H       1  UNL1        0.1499
     19 C          61.1529   88.2881    9.3239 C.3     1  UNL1        0.1316
     20 C          61.1361   86.8275    8.9822 C.3     1  UNL1        0.0270
     21 C          59.4323   88.7531    7.4336 C.3     1  UNL1        0.0862
     22 N          60.2664   89.2425    8.5803 N.3     1  UNL1       -0.2902
     23 H          59.6225   89.6400    9.2642 H       1  UNL1        0.1237
     24 C          66.3126   93.0476    9.8552 C.3     1  UNL1        0.0856
     25 C          67.5297   93.4294    9.0659 C.3     1  UNL1        0.0091
     26 C          67.6241   94.7916    8.4451 C.3     1  UNL1        0.0005
     27 C          68.6523   92.4489    8.8975 C.3     1  UNL1        0.0005
     28 C          62.7248   90.2261   15.6769 C.3     1  UNL1        0.1030
     29 C          63.4592   89.2539   16.5519 C.3     1  UNL1        0.0482
     30 C          63.5337   87.8062   16.1665 C.ar    1  UNL1       -0.0205
     31 C          64.2777   87.3967   14.9300 C.ar    1  UNL1       -0.0042
     32 C          64.3523   85.9490   14.5445 C.ar    1  UNL1       -0.0003
     33 C          63.6830   84.9109   15.3955 C.ar    1  UNL1       -0.0000
     34 C          62.9391   85.3204   16.6321 C.ar    1  UNL1       -0.0003
     35 C          62.8645   86.7681   17.0175 C.ar    1  UNL1       -0.0042
@<TRIPOS>BOND
     1    21    22    1
     2    22    19    1
     3    19    20    1
     4    19    15    1
     5    15    16    2
     6    15    17   am
     7     1    17    1
     8     1     2    1
     9     2     3    1
    10     3     4   am
    11     4     5    2
    12     4    24    1
    13    24    25    1
    14    25    26    1
    15    25    27    1
    16     3     6    1
    17     6     7   ar
    18     7     8   ar
    19     8     9   ar
    20     9    10   ar
    21    10    11   ar
    22    11    12    1
    23    12    28    1
    24    28    29    1
    25    29    30    1
    26    30    31   ar
    27    31    32   ar
    28    32    33   ar
    29    33    34   ar
    30    34    35   ar
    31    12    13   am
    32    13    14    2
    33    13     1    1
    34    11     6   ar
    35    35    30   ar
    36    22    23    1
    37    17    18    1
@<TRIPOS>MOLECULE
*****
 35 37 0 0 0
SMALL
GASTEIGER

@<TRIPOS>ATOM
      1 C          61.8058   86.3353   10.5505 C.3     1  UNL1        0.1695
      2 C          62.3221   85.1623   11.3301 C.3     1  UNL1        0.1271
      3 N          63.1346   85.1621   12.5910 N.am    1  UNL1       -0.2553
      4 C          63.4983   83.8106   13.1305 C.2     1  UNL1        0.2294
      5 O          64.3095   83.6981   14.3873 O.2     1  UNL1       -0.2745
      6 C          63.6316   86.3346   13.3837 C.ar    1  UNL1        0.0676
      7 C          64.4116   85.8921   14.5860 C.ar    1  UNL1        0.0162
      8 C          64.9988   86.9121   15.5160 C.ar    1  UNL1        0.0014
      9 C          64.8060   88.3745   15.2436 C.ar    1  UNL1        0.0014
     10 C          64.0259   88.8169   14.0412 C.ar    1  UNL1        0.0162
     11 C          63.4387   87.7970   13.1113 C.ar    1  UNL1        0.0676
     12 N          62.7013   88.4480   11.9788 N.am    1  UNL1       -0.2558
     13 C          61.9746   87.7976   10.8392 C.2     1  UNL1        0.2490
     14 O          61.3316   88.7330    9.8586 O.2     1  UNL1       -0.2727
     15 C          61.7169   85.4949    8.0937 C.2     1  UNL1        0.2371
     16 O          63.2069   85.3213    8.0992 O.2     1  UNL1       -0.2737
     17 N          61.0164   86.0018    9.3194 N.am    1  UNL1       -0.2959
     18 H          60.0386   86.1158    9.3158 H       1  UNL1        0.1499
     19 C          60.9275   85.1614    6.8626 C.3     1  UNL1        0.1316
     20 C          61.5790   84.4228    5.7311 C.3     1  UNL1        0.0270
     21 C          58.9972   86.7821    7.4929 C.3     1  UNL1        0.0862
     22 N          59.4867   85.5665    6.7629 N.3     1  UNL1       -0.2902
     23 H          59.2915   85.7187    5.7734 H       1  UNL1        0.1237
     24 C          63.0508   82.5714   12.4133 C.3     1  UNL1        0.0856
     25 C          62.4019   81.4556   13.1774 C.3     1  UNL1        0.0091
     26 C          62.6074   80.0334   12.7473 C.3     1  UNL1        0.0005
     27 C          61.5475   81.7621   14.3716 C.3     1  UNL1        0.0005
     28 C          62.6889   89.9479   11.9872 C.3     1  UNL1        0.1030
     29 C          63.5230   90.7104   11.0007 C.3     1  UNL1        0.0482
     30 C          64.4807   91.7600   11.4814 C.ar    1  UNL1       -0.0205
     31 C          64.9833   92.8076   10.5326 C.ar    1  UNL1       -0.0042
     32 C          65.9411   93.8572   11.0132 C.ar    1  UNL1       -0.0003
     33 C          66.3963   93.8592   12.4424 C.ar    1  UNL1       -0.0000
     34 C          65.8937   92.8117   13.3912 C.ar    1  UNL1       -0.0003
     35 C          64.9359   91.7621   12.9105 C.ar    1  UNL1       -0.0042
@<TRIPOS>BOND
     1    21    22    1
     2    22    19    1
     3    19    20    1
     4    19    15    1
     5    15    16    2
     6    15    17   am
     7     1    17    1
     8     1     2    1
     9     2     3    1
    10     3     4   am
    11     4     5    2
    12     4    24    1
    13    24    25    1
    14    25    26    1
    15    25    27    1
    16     3     6    1
    17     6     7   ar
    18     7     8   ar
    19     8     9   ar
    20     9    10   ar
    21    10    11   ar
    22    11    12    1
    23    12    28    1
    24    28    29    1
    25    29    30    1
    26    30    31   ar
    27    31    32   ar
    28    32    33   ar
    29    33    34   ar
    30    34    35   ar
    31    12    13   am
    32    13    14    2
    33    13     1    1
    34    11     6   ar
    35    35    30   ar
    36    22    23    1
    37    17    18    1
@<TRIPOS>MOLECULE
*****
 35 37 0 0 0
SMALL
GASTEIGER

@<TRIPOS>ATOM
      1 C          62.5528   85.3484   12.0574 C.3     1  UNL1        0.1695
      2 C          61.8940   85.7675   10.7766 C.3     1  UNL1        0.1271
      3 N          61.7823   87.1430   10.1890 N.am    1  UNL1       -0.2553
      4 C          61.0551   87.2345    8.8803 C.2     1  UNL1        0.2294
      5 O          60.8873   88.5644    8.2067 O.2     1  UNL1       -0.2745
      6 C          62.3017   88.4392   10.7369 C.ar    1  UNL1        0.0676
      7 C          61.9728   89.5883    9.8306 C.ar    1  UNL1        0.0162
      8 C          62.4033   90.9781   10.1953 C.ar    1  UNL1        0.0014
      9 C          63.1627   91.2189   11.4663 C.ar    1  UNL1        0.0014
     10 C          63.4915   90.0698   12.3726 C.ar    1  UNL1        0.0162
     11 C          63.0610   88.6800   12.0079 C.ar    1  UNL1        0.0676
     12 N          63.4886   87.6839   13.0448 N.am    1  UNL1       -0.2558
     13 C          63.2624   86.2013   13.0669 C.2     1  UNL1        0.2490
     14 O          63.8195   85.4756   14.2556 O.2     1  UNL1       -0.2727
     15 C          63.2163   82.8998   11.4969 C.2     1  UNL1        0.2371
     16 O          63.9973   83.3830   10.3108 O.2     1  UNL1       -0.2737
     17 N          62.4941   83.8825   12.3701 N.am    1  UNL1       -0.2959
     18 H          61.9815   83.5654   13.1486 H       1  UNL1        0.1499
     19 C          63.1576   81.4340   11.8096 C.3     1  UNL1        0.1316
     20 C          63.1294   80.4300   10.6954 C.3     1  UNL1        0.0270
     21 C          61.8133   80.7349   13.9200 C.3     1  UNL1        0.0862
     22 N          63.1272   80.9721   13.2363 N.3     1  UNL1       -0.2902
     23 H          63.6408   80.0915   13.2718 H       1  UNL1        0.1237
     24 C          60.4955   85.9962    8.2450 C.3     1  UNL1        0.0856
     25 C          61.3464   85.1781    7.3193 C.3     1  UNL1        0.0091
     26 C          60.7210   84.4727    6.1527 C.3     1  UNL1        0.0005
     27 C          62.8226   85.0655    7.5605 C.3     1  UNL1        0.0005
     28 C          64.2419   88.2448   14.2144 C.3     1  UNL1        0.1030
     29 C          63.6974   89.4270   14.9602 C.3     1  UNL1        0.0482
     30 C          64.6045   90.5629   15.3303 C.ar    1  UNL1       -0.0205
     31 C          64.2192   91.5005   16.4360 C.ar    1  UNL1       -0.0042
     32 C          65.1262   92.6365   16.8062 C.ar    1  UNL1       -0.0003
     33 C          66.4183   92.8348   16.0707 C.ar    1  UNL1       -0.0000
     34 C          66.8036   91.8971   14.9650 C.ar    1  UNL1       -0.0003
     35 C          65.8966   90.7612   14.5949 C.ar    1  UNL1       -0.0042
@<TRIPOS>BOND
     1    21    22    1
     2    22    19    1
     3    19    20    1
     4    19    15    1
     5    15    16    2
     6    15    17   am
     7     1    17    1
     8     1     2    1
     9     2     3    1
    10     3     4   am
    11     4     5    2
    12     4    24    1
    13    24    25    1
    14    25    26    1
    15    25    27    1
    16     3     6    1
    17     6     7   ar
    18     7     8   ar
    19     8     9   ar
    20     9    10   ar
    21    10    11   ar
    22    11    12    1
    23    12    28    1
    24    28    29    1
    25    29    30    1
    26    30    31   ar
    27    31    32   ar
    28    32    33   ar
    29    33    34   ar
    30    34    35   ar
    31    12    13   am
    32    13    14    2
    33    13     1    1
    34    11     6   ar
    35    35    30   ar
    36    22    23    1
    37    17    18    1
@<TRIPOS>MOLECULE
*****
 35 37 0 0 0
SMALL
GASTEIGER

@<TRIPOS>ATOM
      1 C          62.2956   87.2704   10.7502 C.3     1  UNL1        0.1695
      2 C          62.4261   85.8261   11.1335 C.3     1  UNL1        0.1271
      3 N          62.9623   85.2411   12.4064 N.am    1  UNL1       -0.2553
      4 C          62.9602   83.7432   12.4858 C.2     1  UNL1        0.2294
      5 O          63.4754   83.0565   13.7159 O.2     1  UNL1       -0.2745
      6 C          63.5004   85.9558   13.6104 C.ar    1  UNL1        0.0676
      7 C          63.9359   84.9898   14.6720 C.ar    1  UNL1        0.0162
      8 C          64.5061   85.5001   15.9621 C.ar    1  UNL1        0.0014
      9 C          64.6409   86.9765   16.1906 C.ar    1  UNL1        0.0014
     10 C          64.2053   87.9425   15.1290 C.ar    1  UNL1        0.0162
     11 C          63.6351   87.4322   13.8389 C.ar    1  UNL1        0.0676
     12 N          63.2651   88.5584   12.9198 N.am    1  UNL1       -0.2558
     13 C          62.6690   88.4865   11.5452 C.2     1  UNL1        0.2490
     14 O          62.4122   89.8047   10.8773 O.2     1  UNL1       -0.2727
     15 C          60.2918   87.9889    9.2608 C.2     1  UNL1        0.2371
     16 O          59.4493   88.1813   10.4869 O.2     1  UNL1       -0.2737
     17 N          61.7149   87.5335    9.3925 N.am    1  UNL1       -0.2959
     18 H          62.2678   87.4073    8.5877 H       1  UNL1        0.1499
     19 C          59.7111   88.2521    7.9030 C.3     1  UNL1        0.1316
     20 C          59.0649   87.1374    7.1348 C.3     1  UNL1        0.0270
     21 C          59.1840   89.8959    5.9614 C.3     1  UNL1        0.0862
     22 N          59.7766   89.6297    7.3134 N.3     1  UNL1       -0.2902
     23 H          59.3060   90.2533    7.9691 H       1  UNL1        0.1237
     24 C          62.4428   82.9318   11.3350 C.3     1  UNL1        0.0856
     25 C          63.3759   82.0490   10.5603 C.3     1  UNL1        0.0091
     26 C          64.6568   82.6073   10.0149 C.3     1  UNL1        0.0005
     27 C          63.0279   80.6081   10.3311 C.3     1  UNL1        0.0005
     28 C          63.5257   89.9392   13.4447 C.3     1  UNL1        0.1030
     29 C          64.7355   90.6994   12.9878 C.3     1  UNL1        0.0482
     30 C          65.5971   91.4098   13.9893 C.ar    1  UNL1       -0.0205
     31 C          66.9915   91.8217   13.6205 C.ar    1  UNL1       -0.0042
     32 C          67.8532   92.5322   14.6219 C.ar    1  UNL1       -0.0003
     33 C          67.3204   92.8307   15.9919 C.ar    1  UNL1       -0.0000
     34 C          65.9260   92.4189   16.3606 C.ar    1  UNL1       -0.0003
     35 C          65.0644   91.7084   15.3592 C.ar    1  UNL1       -0.0042
@<TRIPOS>BOND
     1    21    22    1
     2    22    19    1
     3    19    20    1
     4    19    15    1
     5    15    16    2
     6    15    17   am
     7     1    17    1
     8     1     2    1
     9     2     3    1
    10     3     4   am
    11     4     5    2
    12     4    24    1
    13    24    25    1
    14    25    26    1
    15    25    27    1
    16     3     6    1
    17     6     7   ar
    18     7     8   ar
    19     8     9   ar
    20     9    10   ar
    21    10    11   ar
    22    11    12    1
    23    12    28    1
    24    28    29    1
    25    29    30    1
    26    30    31   ar
    27    31    32   ar
    28    32    33   ar
    29    33    34   ar
    30    34    35   ar
    31    12    13   am
    32    13    14    2
    33    13     1    1
    34    11     6   ar
    35    35    30   ar
    36    22    23    1
    37    17    18    1
@<TRIPOS>MOLECULE
*****
 35 37 0 0 0
SMALL
GASTEIGER

@<TRIPOS>ATOM
      1 C          62.2630   87.3003   10.6151 C.3     1  UNL1        0.1695
      2 C          62.7970   88.4502   11.4169 C.3     1  UNL1        0.1271
      3 N          63.4486   88.4256   12.7677 N.am    1  UNL1       -0.2553
      4 C          63.8785   89.7576   13.3072 C.2     1  UNL1        0.2294
      5 O          64.5405   89.8446   14.6505 O.2     1  UNL1       -0.2745
      6 C          63.7272   87.2453   13.6505 C.ar    1  UNL1        0.0676
      7 C          64.3980   87.6612   14.9260 C.ar    1  UNL1        0.0162
      8 C          64.7646   86.6297   15.9515 C.ar    1  UNL1        0.0014
      9 C          64.4604   85.1823   15.7013 C.ar    1  UNL1        0.0014
     10 C          63.7896   84.7664   14.4258 C.ar    1  UNL1        0.0162
     11 C          63.4230   85.7979   13.4004 C.ar    1  UNL1        0.0676
     12 N          62.7650   85.1735   12.2057 N.am    1  UNL1       -0.2558
     13 C          62.2488   85.8420   10.9662 C.2     1  UNL1        0.2490
     14 O          61.6375   84.9321    9.9424 O.2     1  UNL1       -0.2727
     15 C          60.2352   88.1046    9.2041 C.2     1  UNL1        0.2371
     16 O          59.4052   88.1980   10.4501 O.2     1  UNL1       -0.2737
     17 N          61.6641   87.6558    9.2867 N.am    1  UNL1       -0.2959
     18 H          62.2088   87.5945    8.4689 H       1  UNL1        0.1499
     19 C          59.6362   88.4601    7.8756 C.3     1  UNL1        0.1316
     20 C          58.9017   87.4206    7.0818 C.3     1  UNL1        0.0270
     21 C          59.3403   90.1657    5.9383 C.3     1  UNL1        0.0862
     22 N          59.7717   89.8549    7.3409 N.3     1  UNL1       -0.2902
     23 H          59.2291   90.4604    7.9569 H       1  UNL1        0.1237
     24 C          63.6463   91.0027   12.5035 C.3     1  UNL1        0.0856
     25 C          64.8024   91.8858   12.1379 C.3     1  UNL1        0.0091
     26 C          64.9701   92.3543   10.7228 C.3     1  UNL1        0.0005
     27 C          65.7907   92.3005   13.1874 C.3     1  UNL1        0.0005
     28 C          62.6017   83.6833   12.2575 C.3     1  UNL1        0.1030
     29 C          63.5492   82.7982   11.5031 C.3     1  UNL1        0.0482
     30 C          63.2127   81.3528   11.2851 C.ar    1  UNL1       -0.0205
     31 C          62.8323   80.4875   12.4499 C.ar    1  UNL1       -0.0042
     32 C          62.4959   79.0420   12.2320 C.ar    1  UNL1       -0.0003
     33 C          62.5398   78.4619   10.8494 C.ar    1  UNL1       -0.0000
     34 C          62.9202   79.3273    9.6847 C.ar    1  UNL1       -0.0003
     35 C          63.2566   80.7727    9.9026 C.ar    1  UNL1       -0.0042
@<TRIPOS>BOND
     1    21    22    1
     2    22    19    1
     3    19    20    1
     4    19    15    1
     5    15    16    2
     6    15    17   am
     7     1    17    1
     8     1     2    1
     9     2     3    1
    10     3     4   am
    11     4     5    2
    12     4    24    1
    13    24    25    1
    14    25    26    1
    15    25    27    1
    16     3     6    1
    17     6     7   ar
    18     7     8   ar
    19     8     9   ar
    20     9    10   ar
    21    10    11   ar
    22    11    12    1
    23    12    28    1
    24    28    29    1
    25    29    30    1
    26    30    31   ar
    27    31    32   ar
    28    32    33   ar
    29    33    34   ar
    30    34    35   ar
    31    12    13   am
    32    13    14    2
    33    13     1    1
    34    11     6   ar
    35    35    30   ar
    36    22    23    1
    37    17    18    1
@<TRIPOS>MOLECULE
*****
 35 37 0 0 0
SMALL
GASTEIGER

@<TRIPOS>ATOM
      1 C          62.2491   88.2943   10.2791 C.3     1  UNL1        0.1695
      2 C          62.4722   87.1842   11.2630 C.3     1  UNL1        0.1271
      3 N          63.1598   87.2393   12.5950 N.am    1  UNL1       -0.2553
      4 C          63.2212   85.9444   13.3497 C.2     1  UNL1        0.2294
      5 O          63.8872   85.8898   14.6927 O.2     1  UNL1       -0.2745
      6 C          63.7941   88.4179   13.2721 C.ar    1  UNL1        0.0676
      7 C          64.3737   88.0390   14.6027 C.ar    1  UNL1        0.0162
      8 C          65.0566   89.0749   15.4456 C.ar    1  UNL1        0.0014
      9 C          65.1600   90.4896   14.9579 C.ar    1  UNL1        0.0014
     10 C          64.5804   90.8685   13.6273 C.ar    1  UNL1        0.0162
     11 C          63.8975   89.8326   12.7844 C.ar    1  UNL1        0.0676
     12 N          63.3921   90.4181   11.4992 N.am    1  UNL1       -0.2558
     13 C          62.6585   89.7335   10.3842 C.2     1  UNL1        0.2490
     14 O          62.2849   90.6031    9.2205 O.2     1  UNL1       -0.2727
     15 C          60.0493   88.1821    8.9013 C.2     1  UNL1        0.2371
     16 O          59.3073   88.8286   10.0333 O.2     1  UNL1       -0.2737
     17 N          61.5202   87.9149    9.0242 N.am    1  UNL1       -0.2959
     18 H          62.0072   87.4906    8.2812 H       1  UNL1        0.1499
     19 C          59.3204   87.8028    7.6464 C.3     1  UNL1        0.1316
     20 C          59.2737   86.3682    7.2107 C.3     1  UNL1        0.0270
     21 C          59.4538   89.8706    6.0792 C.3     1  UNL1        0.0862
     22 N          58.6383   88.8580    6.8272 N.3     1  UNL1       -0.2902
     23 H          58.0675   88.3711    6.1361 H       1  UNL1        0.1237
     24 C          62.6165   84.7040   12.7615 C.3     1  UNL1        0.0856
     25 C          63.4939   83.6835   12.0989 C.3     1  UNL1        0.0091
     26 C          63.5852   83.6311   10.6027 C.3     1  UNL1        0.0005
     27 C          64.2798   82.7155   12.9328 C.3     1  UNL1        0.0005
     28 C          63.6551   91.8818   11.3030 C.3     1  UNL1        0.1030
     29 C          64.9189   92.4940   11.8302 C.3     1  UNL1        0.0482
     30 C          65.8719   93.1727   10.8914 C.ar    1  UNL1       -0.0205
     31 C          65.6943   94.6256   10.5634 C.ar    1  UNL1       -0.0042
     32 C          66.6472   95.3044    9.6246 C.ar    1  UNL1       -0.0003
     33 C          67.7776   94.5303    9.0140 C.ar    1  UNL1       -0.0000
     34 C          67.9551   93.0774    9.3420 C.ar    1  UNL1       -0.0003
     35 C          67.0022   92.3987   10.2808 C.ar    1  UNL1       -0.0042
@<TRIPOS>BOND
     1    21    22    1
     2    22    19    1
     3    19    20    1
     4    19    15    1
     5    15    16    2
     6    15    17   am
     7     1    17    1
     8     1     2    1
     9     2     3    1
    10     3     4   am
    11     4     5    2
    12     4    24    1
    13    24    25    1
    14    25    26    1
    15    25    27    1
    16     3     6    1
    17     6     7   ar
    18     7     8   ar
    19     8     9   ar
    20     9    10   ar
    21    10    11   ar
    22    11    12    1
    23    12    28    1
    24    28    29    1
    25    29    30    1
    26    30    31   ar
    27    31    32   ar
    28    32    33   ar
    29    33    34   ar
    30    34    35   ar
    31    12    13   am
    32    13    14    2
    33    13     1    1
    34    11     6   ar
    35    35    30   ar
    36    22    23    1
    37    17    18    1
@<TRIPOS>MOLECULE
*****
 35 37 0 0 0
SMALL
GASTEIGER

@<TRIPOS>ATOM
      1 C          63.7303   87.7059   13.8067 C.3     1  UNL1        0.1695
      2 C          63.0866   88.0809   12.5048 C.3     1  UNL1        0.1271
      3 N          62.8076   87.2114   11.3148 N.am    1  UNL1       -0.2553
      4 C          62.1452   87.8910   10.1532 C.2     1  UNL1        0.2294
      5 O          61.8220   87.1116    8.9129 O.2     1  UNL1       -0.2745
      6 C          63.1034   85.7521   11.1328 C.ar    1  UNL1        0.0676
      7 C          62.6597   85.2671    9.7845 C.ar    1  UNL1        0.0162
      8 C          62.8639   83.8318    9.3994 C.ar    1  UNL1        0.0014
      9 C          63.5118   82.8817   10.3624 C.ar    1  UNL1        0.0014
     10 C          63.9555   83.3668   11.7106 C.ar    1  UNL1        0.0162
     11 C          63.7513   84.8020   12.0958 C.ar    1  UNL1        0.0676
     12 N          64.2634   85.0765   13.4787 N.am    1  UNL1       -0.2558
     13 C          64.2541   86.3688   14.2402 C.2     1  UNL1        0.2490
     14 O          64.8468   86.3172   15.6171 O.2     1  UNL1       -0.2727
     15 C          64.3389   90.1689   14.3663 C.2     1  UNL1        0.2371
     16 O          64.6709   90.4145   12.9243 O.2     1  UNL1       -0.2737
     17 N          63.8686   88.8146   14.8075 N.am    1  UNL1       -0.2959
     18 H          63.6507   88.6534   15.7540 H       1  UNL1        0.1499
     19 C          64.4772   91.2776   15.3671 C.3     1  UNL1        0.1316
     20 C          63.6831   91.2430   16.6393 C.3     1  UNL1        0.0270
     21 C          66.5421   92.7047   16.0374 C.3     1  UNL1        0.0862
     22 N          65.4095   92.4209   15.0958 N.3     1  UNL1       -0.2902
     23 H          65.8238   92.2519   14.1793 H       1  UNL1        0.1237
     24 C          61.8058   89.3500   10.2318 C.3     1  UNL1        0.0856
     25 C          60.3991   89.8073    9.9831 C.3     1  UNL1        0.0091
     26 C          59.6353   90.5075   11.0677 C.3     1  UNL1        0.0005
     27 C          59.7561   89.5644    8.6498 C.3     1  UNL1        0.0005
     28 C          64.8643   83.9035   14.1949 C.3     1  UNL1        0.1030
     29 C          64.0170   83.0679   15.1083 C.3     1  UNL1        0.0482
     30 C          63.1379   81.9930   14.5411 C.ar    1  UNL1       -0.0205
     31 C          61.6462   82.1110   14.6465 C.ar    1  UNL1       -0.0042
     32 C          60.7669   81.0361   14.0794 C.ar    1  UNL1       -0.0003
     33 C          61.3794   79.8434   13.4069 C.ar    1  UNL1       -0.0000
     34 C          62.8711   79.7255   13.3015 C.ar    1  UNL1       -0.0003
     35 C          63.7502   80.8003   13.8687 C.ar    1  UNL1       -0.0042
@<TRIPOS>BOND
     1    21    22    1
     2    22    19    1
     3    19    20    1
     4    19    15    1
     5    15    16    2
     6    15    17   am
     7     1    17    1
     8     1     2    1
     9     2     3    1
    10     3     4   am
    11     4     5    2
    12     4    24    1
    13    24    25    1
    14    25    26    1
    15    25    27    1
    16     3     6    1
    17     6     7   ar
    18     7     8   ar
    19     8     9   ar
    20     9    10   ar
    21    10    11   ar
    22    11    12    1
    23    12    28    1
    24    28    29    1
    25    29    30    1
    26    30    31   ar
    27    31    32   ar
    28    32    33   ar
    29    33    34   ar
    30    34    35   ar
    31    12    13   am
    32    13    14    2
    33    13     1    1
    34    11     6   ar
    35    35    30   ar
    36    22    23    1
    37    17    18    1
@<TRIPOS>MOLECULE
*****
 35 37 0 0 0
SMALL
GASTEIGER

@<TRIPOS>ATOM
      1 C          62.0303   86.5066   10.7426 C.3     1  UNL1        0.1695
      2 C          62.0660   88.0050   10.8026 C.3     1  UNL1        0.1271
      3 N          62.7214   88.8846   11.8257 N.am    1  UNL1       -0.2553
      4 C          62.5760   90.3609   11.6037 C.2     1  UNL1        0.2294
      5 O          63.1940   91.3290   12.5686 O.2     1  UNL1       -0.2745
      6 C          63.5031   88.4832   13.0414 C.ar    1  UNL1        0.0676
      7 C          63.9888   89.6819   13.8011 C.ar    1  UNL1        0.0162
      8 C          64.7938   89.5003   15.0536 C.ar    1  UNL1        0.0014
      9 C          65.1130   88.1200   15.5465 C.ar    1  UNL1        0.0014
     10 C          64.6273   86.9214   14.7868 C.ar    1  UNL1        0.0162
     11 C          63.8224   87.1029   13.5342 C.ar    1  UNL1        0.0676
     12 N          63.4388   85.7832   12.9332 N.am    1  UNL1       -0.2558
     13 C          62.6413   85.5177   11.6908 C.2     1  UNL1        0.2490
     14 O          62.4263   84.0725   11.3518 O.2     1  UNL1       -0.2727
     15 C          61.9965   85.6646    8.2850 C.2     1  UNL1        0.2371
     16 O          63.4531   85.9970    8.1510 O.2     1  UNL1       -0.2737
     17 N          61.2852   85.9193    9.5808 N.am    1  UNL1       -0.2959
     18 H          60.3292   85.7011    9.6687 H       1  UNL1        0.1499
     19 C          61.2513   85.0773    7.1232 C.3     1  UNL1        0.1316
     20 C          61.9936   84.3226    6.0603 C.3     1  UNL1        0.0270
     21 C          59.1276   86.5441    7.4197 C.3     1  UNL1        0.0862
     22 N          59.7640   85.2447    7.0242 N.3     1  UNL1       -0.2902
     23 H          59.5133   85.0786    6.0496 H       1  UNL1        0.1237
     24 C          61.8126   90.8693   10.4167 C.3     1  UNL1        0.0856
     25 C          60.3933   90.4367   10.1965 C.3     1  UNL1        0.0091
     26 C          60.0039   89.7681    8.9115 C.3     1  UNL1        0.0005
     27 C          59.3634   90.6729   11.2613 C.3     1  UNL1        0.0005
     28 C          63.9159   84.5682   13.6722 C.3     1  UNL1        0.1030
     29 C          62.9595   83.7816   14.5188 C.3     1  UNL1        0.0482
     30 C          62.5928   82.3798   14.1308 C.ar    1  UNL1       -0.0205
     31 C          63.5920   81.5110   13.4259 C.ar    1  UNL1       -0.0042
     32 C          63.2254   80.1092   13.0379 C.ar    1  UNL1       -0.0003
     33 C          61.8596   79.5763   13.3548 C.ar    1  UNL1       -0.0000
     34 C          60.8603   80.4451   14.0596 C.ar    1  UNL1       -0.0003
     35 C          61.2270   81.8468   14.4476 C.ar    1  UNL1       -0.0042
@<TRIPOS>BOND
     1    21    22    1
     2    22    19    1
     3    19    20    1
     4    19    15    1
     5    15    16    2
     6    15    17   am
     7     1    17    1
     8     1     2    1
     9     2     3    1
    10     3     4   am
    11     4     5    2
    12     4    24    1
    13    24    25    1
    14    25    26    1
    15    25    27    1
    16     3     6    1
    17     6     7   ar
    18     7     8   ar
    19     8     9   ar
    20     9    10   ar
    21    10    11   ar
    22    11    12    1
    23    12    28    1
    24    28    29    1
    25    29    30    1
    26    30    31   ar
    27    31    32   ar
    28    32    33   ar
    29    33    34   ar
    30    34    35   ar
    31    12    13   am
    32    13    14    2
    33    13     1    1
    34    11     6   ar
    35    35    30   ar
    36    22    23    1
    37    17    18    1
@<TRIPOS>MOLECULE
*****
 35 37 0 0 0
SMALL
GASTEIGER

@<TRIPOS>ATOM
      1 C          62.6460   85.1613   11.9667 C.3     1  UNL1        0.1695
      2 C          63.2623   85.7206   13.2146 C.3     1  UNL1        0.1271
      3 N          63.6431   87.1401   13.5144 N.am    1  UNL1       -0.2553
      4 C          64.2450   87.3806   14.8671 C.2     1  UNL1        0.2294
      5 O          64.6610   88.7651   15.2676 O.2     1  UNL1       -0.2745
      6 C          63.5017   88.3510   12.6404 C.ar    1  UNL1        0.0676
      7 C          64.0084   89.5846   13.3269 C.ar    1  UNL1        0.0162
      8 C          63.9580   90.9085   12.6237 C.ar    1  UNL1        0.0014
      9 C          63.4008   90.9989   11.2339 C.ar    1  UNL1        0.0014
     10 C          62.8940   89.7652   10.5474 C.ar    1  UNL1        0.0162
     11 C          62.9445   88.4413   11.2507 C.ar    1  UNL1        0.0676
     12 N          62.3911   87.3431   10.3917 N.am    1  UNL1       -0.2558
     13 C          62.2582   85.8833   10.7103 C.2     1  UNL1        0.2490
     14 O          61.6584   85.0333    9.6298 O.2     1  UNL1       -0.2727
     15 C          63.4476   82.7298   11.5249 C.2     1  UNL1        0.2371
     16 O          64.7763   83.2516   11.0638 O.2     1  UNL1       -0.2737
     17 N          62.3825   83.6846   11.9763 N.am    1  UNL1       -0.2959
     18 H          61.5106   83.3421   12.2789 H       1  UNL1        0.1499
     19 C          63.1842   81.2531   11.5346 C.3     1  UNL1        0.1316
     20 C          63.1259   80.4933   10.2425 C.3     1  UNL1        0.0270
     21 C          61.7653   80.8258   13.6686 C.3     1  UNL1        0.0862
     22 N          62.9791   80.5364   12.8361 N.3     1  UNL1       -0.2902
     23 H          62.9591   79.5391   12.6231 H       1  UNL1        0.1237
     24 C          64.4309   86.2367   15.8195 C.3     1  UNL1        0.0856
     25 C          63.2724   85.7440   16.6351 C.3     1  UNL1        0.0091
     26 C          62.8231   86.5141   17.8414 C.3     1  UNL1        0.0005
     27 C          62.5633   84.4813   16.2444 C.3     1  UNL1        0.0005
     28 C          61.9065   87.7597    9.0347 C.3     1  UNL1        0.1030
     29 C          60.5769   88.4387    8.8889 C.3     1  UNL1        0.0482
     30 C          59.8991   89.0264   10.0910 C.ar    1  UNL1       -0.0205
     31 C          59.7514   90.5139   10.2163 C.ar    1  UNL1       -0.0042
     32 C          59.0736   91.1017   11.4184 C.ar    1  UNL1       -0.0003
     33 C          58.5435   90.2020   12.4952 C.ar    1  UNL1       -0.0000
     34 C          58.6911   88.7145   12.3699 C.ar    1  UNL1       -0.0003
     35 C          59.3690   88.1268   11.1678 C.ar    1  UNL1       -0.0042
@<TRIPOS>BOND
     1    21    22    1
     2    22    19    1
     3    19    20    1
     4    19    15    1
     5    15    16    2
     6    15    17   am
     7     1    17    1
     8     1     2    1
     9     2     3    1
    10     3     4   am
    11     4     5    2
    12     4    24    1
    13    24    25    1
    14    25    26    1
    15    25    27    1
    16     3     6    1
    17     6     7   ar
    18     7     8   ar
    19     8     9   ar
    20     9    10   ar
    21    10    11   ar
    22    11    12    1
    23    12    28    1
    24    28    29    1
    25    29    30    1
    26    30    31   ar
    27    31    32   ar
    28    32    33   ar
    29    33    34   ar
    30    34    35   ar
    31    12    13   am
    32    13    14    2
    33    13     1    1
    34    11     6   ar
    35    35    30   ar
    36    22    23    1
    37    17    18    1
