@<TRIPOS>MOLECULE
*****
 38 41 0 0 0
SMALL
GASTEIGER

@<TRIPOS>ATOM
      1 C          63.7978   89.8420   15.6964 C.2     1  UNL1        0.2491
      2 O          63.2362   90.4186   16.9621 O.2     1  UNL1       -0.2699
      3 N          63.7829   88.3582   15.4771 N.am    1  UNL1       -0.2726
      4 C          64.3446   87.7815   14.2113 C.3     1  UNL1        0.1152
      5 C          64.3297   86.2977   13.9920 C.3     1  UNL1        0.1149
      6 N          63.7533   85.3906   15.0384 N.am    1  UNL1       -0.2760
      7 C          63.7385   83.9067   14.8190 C.2     1  UNL1        0.2271
      8 O          63.1621   82.9996   15.8653 O.2     1  UNL1       -0.2748
      9 C          63.1917   85.9672   16.3040 C.3     1  UNL1        0.1149
     10 C          63.2065   87.4511   16.5234 C.3     1  UNL1        0.1152
     11 C          65.5270   92.5633   12.5573 C.ar    1  UNL1        0.0479
     12 C          66.2256   92.3985   13.8744 C.ar    1  UNL1        0.0147
     13 C          65.6492   91.4914   14.9207 C.ar    1  UNL1        0.0058
     14 C          64.3742   90.7491   14.6500 C.ar    1  UNL1        0.0537
     15 C          63.6756   90.9139   13.3329 C.ar    1  UNL1        0.0058
     16 C          64.2520   91.8210   12.2865 C.ar    1  UNL1        0.0147
     17 C          67.8327   96.1918    8.3718 C.3     1  UNL1        0.0897
     18 N          67.2563   95.2846    9.4182 N.3     1  UNL1       -0.2686
     19 C          67.3631   93.7966    9.2622 C.3     1  UNL1        0.0938
     20 C          66.7867   92.8895   10.3085 C.3     1  UNL1        0.1081
     21 N          66.1034   93.4704   11.5109 N.pl3   1  UNL1       -0.3046
     22 C          65.9966   94.9584   11.6669 C.3     1  UNL1        0.1081
     23 C          66.5730   95.8655   10.6205 C.3     1  UNL1        0.0938
     24 C          64.3001   83.3301   13.5533 C.3     1  UNL1        0.1010
     25 C          63.4042   83.0976   12.3729 C.3     1  UNL1        0.0644
     26 N          62.1935   82.2229   12.5111 N.3     1  UNL1       -0.3215
     27 H          61.7040   82.1763   11.6174 H       1  UNL1        0.1188
     28 H          61.5716   82.6126   13.2195 H       1  UNL1        0.1188
     29 C          63.7191   83.7397   11.0543 C.3     1  UNL1        0.0447
     30 C          62.8068   84.7910   10.4953 C.ar    1  UNL1        0.0090
     31 C          61.9683   85.6243   11.4185 C.ar    1  UNL1        0.0300
     32 C          61.0560   86.6756   10.8594 C.ar    1  UNL1        0.1672
     33 F          60.2174   87.5090   11.7826 F       1  UNL1       -0.2018
     34 C          60.9823   86.8936    9.3771 C.ar    1  UNL1        0.1696
     35 F          60.0700   87.9448    8.8181 F       1  UNL1       -0.2017
     36 C          61.8209   86.0602    8.4540 C.ar    1  UNL1        0.0612
     37 C          62.7331   85.0089    9.0130 C.ar    1  UNL1        0.1386
     38 F          63.5717   84.1756    8.0898 F       1  UNL1       -0.2044
@<TRIPOS>BOND
     1    17    18    1
     2    18    19    1
     3    19    20    1
     4    20    21    1
     5    21    11    1
     6    11    12   ar
     7    12    13   ar
     8    13    14   ar
     9    14     1    1
    10     1     2    2
    11     1     3   am
    12     3     4    1
    13     4     5    1
    14     5     6    1
    15     6     7   am
    16     7     8    2
    17     7    24    1
    18    24    25    1
    19    25    26    1
    20    25    29    1
    21    29    30    1
    22    30    31   ar
    23    31    32   ar
    24    32    33    1
    25    32    34   ar
    26    34    35    1
    27    34    36   ar
    28    36    37   ar
    29    37    38    1
    30     6     9    1
    31     9    10    1
    32    14    15   ar
    33    15    16   ar
    34    21    22    1
    35    22    23    1
    36    23    18    1
    37    16    11   ar
    38    10     3    1
    39    37    30   ar
    40    26    27    1
    41    26    28    1
@<TRIPOS>MOLECULE
*****
 38 41 0 0 0
SMALL
GASTEIGER

@<TRIPOS>ATOM
      1 C          63.7658   90.1449   15.7758 C.2     1  UNL1        0.2491
      2 O          63.1359   90.7741   16.9830 O.2     1  UNL1       -0.2699
      3 N          63.8035   88.6514   15.6421 N.am    1  UNL1       -0.2726
      4 C          64.4335   88.0221   14.4349 C.3     1  UNL1        0.1152
      5 C          64.4711   86.5286   14.3012 C.3     1  UNL1        0.1149
      6 N          63.8789   85.6643   15.3746 N.am    1  UNL1       -0.2760
      7 C          63.9166   84.1707   15.2409 C.2     1  UNL1        0.2271
      8 O          63.3244   83.3064   16.3143 O.2     1  UNL1       -0.2748
      9 C          63.2490   86.2935   16.5818 C.3     1  UNL1        0.1149
     10 C          63.2113   87.7871   16.7155 C.3     1  UNL1        0.1152
     11 C          65.5425   92.7378   12.5555 C.ar    1  UNL1        0.0479
     12 C          64.3494   91.8800   12.2546 C.ar    1  UNL1        0.0147
     13 C          63.7572   91.0157   13.3281 C.ar    1  UNL1        0.0058
     14 C          64.3581   91.0092   14.7024 C.ar    1  UNL1        0.0537
     15 C          65.5512   91.8670   15.0033 C.ar    1  UNL1        0.0058
     16 C          66.1434   92.7313   13.9299 C.ar    1  UNL1        0.0147
     17 C          67.9115   96.1950    8.2618 C.3     1  UNL1        0.0897
     18 N          67.3192   95.3307    9.3353 N.3     1  UNL1       -0.2686
     19 C          66.6557   95.9602   10.5241 C.3     1  UNL1        0.0938
     20 C          66.0634   95.0959   11.5975 C.3     1  UNL1        0.1081
     21 N          66.1348   93.6021   11.4821 N.pl3   1  UNL1       -0.3046
     22 C          66.7983   92.9726   10.2933 C.3     1  UNL1        0.1081
     23 C          67.3906   93.8369    9.2199 C.3     1  UNL1        0.0938
     24 C          64.5465   83.5415   14.0337 C.3     1  UNL1        0.1010
     25 C          63.7059   82.7514   13.0750 C.3     1  UNL1        0.0644
     26 N          62.6097   81.8673   13.5913 N.3     1  UNL1       -0.3215
     27 H          62.1447   81.4093   12.8075 H       1  UNL1        0.1188
     28 H          61.9329   82.4303   14.1063 H       1  UNL1        0.1188
     29 C          63.9615   82.8456   11.5999 C.3     1  UNL1        0.0447
     30 C          63.2887   83.9129   10.7888 C.ar    1  UNL1        0.0090
     31 C          63.5795   84.0358    9.3224 C.ar    1  UNL1        0.0300
     32 C          62.9067   85.1032    8.5112 C.ar    1  UNL1        0.1672
     33 F          63.1975   85.2261    7.0448 F       1  UNL1       -0.2018
     34 C          61.9430   86.0477    9.1664 C.ar    1  UNL1        0.1696
     35 F          61.2702   87.1150    8.3552 F       1  UNL1       -0.2017
     36 C          61.6522   85.9248   10.6328 C.ar    1  UNL1        0.0612
     37 C          62.3250   84.8574   11.4440 C.ar    1  UNL1        0.1386
     38 F          62.0342   84.7345   12.9103 F       1  UNL1       -0.2044
@<TRIPOS>BOND
     1    17    18    1
     2    18    19    1
     3    19    20    1
     4    20    21    1
     5    21    11    1
     6    11    12   ar
     7    12    13   ar
     8    13    14   ar
     9    14     1    1
    10     1     2    2
    11     1     3   am
    12     3     4    1
    13     4     5    1
    14     5     6    1
    15     6     7   am
    16     7     8    2
    17     7    24    1
    18    24    25    1
    19    25    26    1
    20    25    29    1
    21    29    30    1
    22    30    31   ar
    23    31    32   ar
    24    32    33    1
    25    32    34   ar
    26    34    35    1
    27    34    36   ar
    28    36    37   ar
    29    37    38    1
    30     6     9    1
    31     9    10    1
    32    14    15   ar
    33    15    16   ar
    34    21    22    1
    35    22    23    1
    36    23    18    1
    37    16    11   ar
    38    10     3    1
    39    37    30   ar
    40    26    27    1
    41    26    28    1
