@<TRIPOS>MOLECULE
*****
 39 41 0 0 0
SMALL
GASTEIGER

@<TRIPOS>ATOM
      1 C          60.8165   88.7073    9.0845 C.ar    1  UNL1        0.0097
      2 C          60.0191   89.6280    8.2091 C.ar    1  UNL1        0.0099
      3 C          59.1466   89.0650    7.1266 C.ar    1  UNL1        0.0575
      4 CL         58.3491   89.9858    6.2512 Cl      1  UNL1       -0.0823
      5 C          59.0714   87.5813    6.9195 C.ar    1  UNL1        0.0126
      6 C          59.8688   86.6606    7.7949 C.ar    1  UNL1        0.0151
      7 C          60.7414   87.2236    8.8774 C.ar    1  UNL1        0.0455
      8 N          61.5388   86.3028    9.7528 N.pl3   1  UNL1       -0.3043
      9 C          61.2539   86.2328   11.2239 C.3     1  UNL1        0.1123
     10 C          62.0512   85.3121   12.0993 C.3     1  UNL1        0.1148
     11 N          63.1336   84.4612   11.5037 N.am    1  UNL1       -0.2760
     12 C          63.9309   83.5405   12.3791 C.2     1  UNL1        0.2256
     13 O          65.0132   82.6897   11.7835 O.2     1  UNL1       -0.2749
     14 C          63.4185   84.5312   10.0326 C.3     1  UNL1        0.1148
     15 C          62.6211   85.4520    9.1572 C.3     1  UNL1        0.1123
     16 C          63.6460   83.4705   13.8501 C.3     1  UNL1        0.0811
     17 C          62.4709   82.6836   14.3499 C.3     1  UNL1        0.0099
     18 C          64.5362   84.1875   14.8214 C.3     1  UNL1        0.0354
     19 C          64.1514   85.5450   15.3304 C.ar    1  UNL1       -0.0217
     20 C          64.5477   86.7729   14.5654 C.ar    1  UNL1       -0.0034
     21 C          64.1629   88.1304   15.0743 C.ar    1  UNL1        0.0111
     22 C          63.3816   88.2600   16.3483 C.ar    1  UNL1        0.0577
     23 CL         62.9968   89.6175   16.8573 Cl      1  UNL1       -0.0822
     24 C          62.9853   87.0321   17.1132 C.ar    1  UNL1        0.0111
     25 C          63.3702   85.6746   16.6043 C.ar    1  UNL1       -0.0034
     26 C          61.6890   89.2703   10.1669 C.3     1  UNL1        0.0953
     27 N          63.0251   89.8589    9.8231 N.am    1  UNL1       -0.3021
     28 C          63.6759   90.8374   10.7553 C.2     1  UNL1        0.2241
     29 O          65.0121   91.4260   10.4114 O.2     1  UNL1       -0.2750
     30 H          63.4749   89.6030    8.9856 H       1  UNL1        0.1497
     31 C          62.9906   91.2272   12.0314 C.3     1  UNL1        0.1023
     32 C          63.6437   90.9412   13.3511 C.3     1  UNL1        0.0818
     33 N          64.7902   91.7873   13.8196 N.3     1  UNL1       -0.2699
     34 C          65.4493   92.7473   12.8740 C.3     1  UNL1        0.0897
     35 C          65.2777   91.6735   15.2336 C.3     1  UNL1        0.0897
     36 C          61.2254   89.2446   11.5932 C.3     1  UNL1        0.0242
     37 C          59.3058   90.9933   11.5073 C.3     1  UNL1        0.0001
     38 C          59.8220   89.6509   11.9332 C.3     1  UNL1        0.0020
     39 C          58.9348   88.7146   12.6989 C.3     1  UNL1        0.0001
@<TRIPOS>BOND
     1    37    38    1
     2    38    39    1
     3    38    36    1
     4    26    36    1
     5    26    27    1
     6    27    28   am
     7    28    29    2
     8    28    31    1
     9    31    32    1
    10    32    33    1
    11    33    34    1
    12    33    35    1
    13    26     1    1
    14     1     2   ar
    15     2     3   ar
    16     3     4    1
    17     3     5   ar
    18     5     6   ar
    19     6     7   ar
    20     7     8    1
    21     8     9    1
    22     9    10    1
    23    10    11    1
    24    11    12   am
    25    12    13    2
    26    12    16    1
    27    16    17    1
    28    16    18    1
    29    18    19    1
    30    19    20   ar
    31    20    21   ar
    32    21    22   ar
    33    22    23    1
    34    22    24   ar
    35    24    25   ar
    36    11    14    1
    37    14    15    1
    38     7     1   ar
    39    15     8    1
    40    25    19   ar
    41    27    30    1
@<TRIPOS>MOLECULE
*****
 39 41 0 0 0
SMALL
GASTEIGER

@<TRIPOS>ATOM
      1 C          60.8791   89.3065    9.3207 C.ar    1  UNL1        0.0097
      2 C          60.1289   89.8717    8.1513 C.ar    1  UNL1        0.0099
      3 C          59.4536   88.9517    7.1778 C.ar    1  UNL1        0.0575
      4 CL         58.7034   89.5170    6.0083 Cl      1  UNL1       -0.0823
      5 C          59.5285   87.4665    7.3738 C.ar    1  UNL1        0.0126
      6 C          60.2787   86.9013    8.5432 C.ar    1  UNL1        0.0151
      7 C          60.9540   87.8212    9.5167 C.ar    1  UNL1        0.0455
      8 N          61.7043   87.2559   10.6862 N.pl3   1  UNL1       -0.3043
      9 C          61.4695   85.8372   11.1129 C.3     1  UNL1        0.1123
     10 C          62.2197   85.2719   12.2824 C.3     1  UNL1        0.1148
     11 N          63.2047   86.1253   13.0251 N.am    1  UNL1       -0.2760
     12 C          63.9549   85.5599   14.1945 C.2     1  UNL1        0.2256
     13 O          64.9398   86.4133   14.9372 O.2     1  UNL1       -0.2749
     14 C          63.4394   87.5440   12.5984 C.3     1  UNL1        0.1148
     15 C          62.6892   88.1093   11.4289 C.3     1  UNL1        0.1123
     16 C          63.7201   84.1412   14.6213 C.3     1  UNL1        0.0811
     17 C          62.6273   83.8229   15.5982 C.3     1  UNL1        0.0099
     18 C          64.5782   83.0408   14.0711 C.3     1  UNL1        0.0354
     19 C          64.0748   82.1898   12.9431 C.ar    1  UNL1       -0.0217
     20 C          64.3738   82.5723   11.5238 C.ar    1  UNL1       -0.0034
     21 C          63.8703   81.7213   10.3958 C.ar    1  UNL1        0.0111
     22 C          63.0679   80.4879   10.6871 C.ar    1  UNL1        0.0577
     23 CL         62.5644   79.6369    9.5591 Cl      1  UNL1       -0.0822
     24 C          62.7689   80.1055   12.1064 C.ar    1  UNL1        0.0111
     25 C          63.2723   80.9565   13.2344 C.ar    1  UNL1       -0.0034
     26 C          61.5544   90.2264   10.2942 C.3     1  UNL1        0.0953
     27 N          62.7477   91.0275    9.8650 N.am    1  UNL1       -0.3021
     28 C          63.7347   91.5090   10.8868 C.2     1  UNL1        0.2241
     29 O          64.9281   92.3101   10.4576 O.2     1  UNL1       -0.2750
     30 H          62.8832   91.2372    8.9127 H       1  UNL1        0.1497
     31 C          63.5283   91.1895   12.3377 C.3     1  UNL1        0.1023
     32 C          64.6869   91.2403   13.2891 C.3     1  UNL1        0.0818
     33 N          64.4500   91.1299   14.7661 N.3     1  UNL1       -0.2699
     34 C          65.1761   92.0396   15.7122 C.3     1  UNL1        0.0897
     35 C          63.4869   90.1098   15.2971 C.3     1  UNL1        0.0897
     36 C          61.0363   90.3454   11.6968 C.3     1  UNL1        0.0242
     37 C          59.0311   88.9560   12.5906 C.3     1  UNL1        0.0001
     38 C          59.5671   90.2108   11.9677 C.3     1  UNL1        0.0020
     39 C          58.6339   91.3312   11.6155 C.3     1  UNL1        0.0001
@<TRIPOS>BOND
     1    37    38    1
     2    38    39    1
     3    38    36    1
     4    26    36    1
     5    26    27    1
     6    27    28   am
     7    28    29    2
     8    28    31    1
     9    31    32    1
    10    32    33    1
    11    33    34    1
    12    33    35    1
    13    26     1    1
    14     1     2   ar
    15     2     3   ar
    16     3     4    1
    17     3     5   ar
    18     5     6   ar
    19     6     7   ar
    20     7     8    1
    21     8     9    1
    22     9    10    1
    23    10    11    1
    24    11    12   am
    25    12    13    2
    26    12    16    1
    27    16    17    1
    28    16    18    1
    29    18    19    1
    30    19    20   ar
    31    20    21   ar
    32    21    22   ar
    33    22    23    1
    34    22    24   ar
    35    24    25   ar
    36    11    14    1
    37    14    15    1
    38     7     1   ar
    39    15     8    1
    40    25    19   ar
    41    27    30    1
@<TRIPOS>MOLECULE
*****
 39 41 0 0 0
SMALL
GASTEIGER

@<TRIPOS>ATOM
      1 C          61.4136   87.3532   10.3102 C.ar    1  UNL1        0.0097
      2 C          60.5613   86.6997    9.2631 C.ar    1  UNL1        0.0099
      3 C          59.6676   87.5349    8.3949 C.ar    1  UNL1        0.0575
      4 CL         58.8152   86.8814    7.3477 Cl      1  UNL1       -0.0823
      5 C          59.6261   89.0236    8.5739 C.ar    1  UNL1        0.0126
      6 C          60.4784   89.6770    9.6210 C.ar    1  UNL1        0.0151
      7 C          61.3721   88.8418   10.4892 C.ar    1  UNL1        0.0455
      8 N          62.2244   89.4954   11.5363 N.pl3   1  UNL1       -0.3043
      9 C          63.5343   90.1192   11.1553 C.3     1  UNL1        0.1123
     10 C          64.3866   90.7727   12.2023 C.3     1  UNL1        0.1148
     11 N          63.9291   90.8025   13.6306 N.am    1  UNL1       -0.2760
     12 C          64.7814   91.4560   14.6777 C.2     1  UNL1        0.2256
     13 O          64.3238   91.4857   16.1059 O.2     1  UNL1       -0.2749
     14 C          62.6192   90.1787   14.0117 C.3     1  UNL1        0.1148
     15 C          61.7669   89.5251   12.9645 C.3     1  UNL1        0.1123
     16 C          66.0912   92.0798   14.2966 C.3     1  UNL1        0.0811
     17 C          67.3612   91.2909   14.4182 C.3     1  UNL1        0.0099
     18 C          66.1311   93.4924   13.7939 C.3     1  UNL1        0.0354
     19 C          66.4483   93.7674   12.3538 C.ar    1  UNL1       -0.0217
     20 C          66.2253   95.1374   11.7851 C.ar    1  UNL1       -0.0034
     21 C          66.5425   95.4124   10.3450 C.ar    1  UNL1        0.0111
     22 C          67.0827   94.3173    9.4737 C.ar    1  UNL1        0.0577
     23 CL         67.3999   94.5923    8.0337 Cl      1  UNL1       -0.0822
     24 C          67.3057   92.9474   10.0425 C.ar    1  UNL1        0.0111
     25 C          66.9885   92.6724   11.4825 C.ar    1  UNL1       -0.0034
     26 C          62.3073   86.5180   11.1783 C.3     1  UNL1        0.0953
     27 N          63.1446   87.1693   12.2388 N.am    1  UNL1       -0.3021
     28 C          63.4522   86.4330   13.5090 C.2     1  UNL1        0.2241
     29 O          64.2896   87.0844   14.5695 O.2     1  UNL1       -0.2750
     30 H          63.4922   88.0800   12.1013 H       1  UNL1        0.1497
     31 C          62.9226   85.0454   13.7186 C.3     1  UNL1        0.1023
     32 C          63.8676   83.9185   14.0138 C.3     1  UNL1        0.0818
     33 N          63.3826   82.5001   13.9628 N.3     1  UNL1       -0.2699
     34 C          64.2694   81.4236   13.4108 C.3     1  UNL1        0.0897
     35 C          62.0106   82.1580   14.4638 C.3     1  UNL1        0.0897
     36 C          62.3637   85.0315   10.9860 C.3     1  UNL1        0.0242
     37 C          64.2442   83.3490   10.3671 C.3     1  UNL1        0.0001
     38 C          63.2963   84.4415    9.9699 C.3     1  UNL1        0.0020
     39 C          63.2809   84.9441    8.5567 C.3     1  UNL1        0.0001
@<TRIPOS>BOND
     1    37    38    1
     2    38    39    1
     3    38    36    1
     4    26    36    1
     5    26    27    1
     6    27    28   am
     7    28    29    2
     8    28    31    1
     9    31    32    1
    10    32    33    1
    11    33    34    1
    12    33    35    1
    13    26     1    1
    14     1     2   ar
    15     2     3   ar
    16     3     4    1
    17     3     5   ar
    18     5     6   ar
    19     6     7   ar
    20     7     8    1
    21     8     9    1
    22     9    10    1
    23    10    11    1
    24    11    12   am
    25    12    13    2
    26    12    16    1
    27    16    17    1
    28    16    18    1
    29    18    19    1
    30    19    20   ar
    31    20    21   ar
    32    21    22   ar
    33    22    23    1
    34    22    24   ar
    35    24    25   ar
    36    11    14    1
    37    14    15    1
    38     7     1   ar
    39    15     8    1
    40    25    19   ar
    41    27    30    1
@<TRIPOS>MOLECULE
*****
 39 41 0 0 0
SMALL
GASTEIGER

@<TRIPOS>ATOM
      1 C          62.8271   87.1655   12.4952 C.ar    1  UNL1        0.0097
      2 C          62.4220   85.8661   11.8649 C.ar    1  UNL1        0.0099
      3 C          62.8756   84.5681   12.4643 C.ar    1  UNL1        0.0575
      4 CL         62.4704   83.2686   11.8339 Cl      1  UNL1       -0.0823
      5 C          63.7344   84.5694   13.6941 C.ar    1  UNL1        0.0126
      6 C          64.1395   85.8688   14.3245 C.ar    1  UNL1        0.0151
      7 C          63.6858   87.1669   13.7250 C.ar    1  UNL1        0.0455
      8 N          64.0910   88.4663   14.3555 N.pl3   1  UNL1       -0.3043
      9 C          65.3421   89.1604   13.9051 C.3     1  UNL1        0.1123
     10 C          65.7473   90.4598   14.5355 C.3     1  UNL1        0.1148
     11 N          64.9014   91.0651   15.6163 N.am    1  UNL1       -0.2760
     12 C          65.3066   92.3645   16.2466 C.2     1  UNL1        0.2256
     13 O          64.4606   92.9697   17.3274 O.2     1  UNL1       -0.2749
     14 C          63.6502   90.3710   16.0666 C.3     1  UNL1        0.1148
     15 C          63.2451   89.0715   15.4362 C.3     1  UNL1        0.1123
     16 C          66.5577   93.0586   15.7963 C.3     1  UNL1        0.0811
     17 C          67.8430   92.8448   16.5394 C.3     1  UNL1        0.0099
     18 C          66.5235   93.9666   14.6028 C.3     1  UNL1        0.0354
     19 C          66.8925   93.4387   13.2481 C.ar    1  UNL1       -0.0217
     20 C          67.8501   92.2905   13.1258 C.ar    1  UNL1       -0.0034
     21 C          68.2190   91.7627   11.7711 C.ar    1  UNL1        0.0111
     22 C          67.6305   92.3831   10.5387 C.ar    1  UNL1        0.0577
     23 CL         67.9995   91.8553    9.1839 Cl      1  UNL1       -0.0822
     24 C          66.6730   93.5312   10.6610 C.ar    1  UNL1        0.0111
     25 C          66.3040   94.0590   12.0157 C.ar    1  UNL1       -0.0034
     26 C          62.3734   88.4635   11.8958 C.3     1  UNL1        0.0953
     27 N          61.1029   89.1049   12.3694 N.am    1  UNL1       -0.3021
     28 C          59.8577   89.0054   11.5390 C.2     1  UNL1        0.2241
     29 O          58.5871   89.6468   12.0127 O.2     1  UNL1       -0.2750
     30 H          61.0863   89.5912   13.2252 H       1  UNL1        0.1497
     31 C          59.8830   88.2645   10.2351 C.3     1  UNL1        0.1023
     32 C          60.0619   89.0155    8.9490 C.3     1  UNL1        0.0818
     33 N          59.4561   88.4884    7.6821 N.3     1  UNL1       -0.2699
     34 C          59.0546   87.0463    7.5861 C.3     1  UNL1        0.0897
     35 C          59.2517   89.4034    6.5112 C.3     1  UNL1        0.0897
     36 C          63.1903   89.1202   10.8228 C.3     1  UNL1        0.0242
     37 C          62.8257   91.3631    9.5632 C.3     1  UNL1        0.0001
     38 C          63.3010   90.6153   10.7735 C.3     1  UNL1        0.0020
     39 C          63.8869   91.3626   11.9347 C.3     1  UNL1        0.0001
@<TRIPOS>BOND
     1    37    38    1
     2    38    39    1
     3    38    36    1
     4    26    36    1
     5    26    27    1
     6    27    28   am
     7    28    29    2
     8    28    31    1
     9    31    32    1
    10    32    33    1
    11    33    34    1
    12    33    35    1
    13    26     1    1
    14     1     2   ar
    15     2     3   ar
    16     3     4    1
    17     3     5   ar
    18     5     6   ar
    19     6     7   ar
    20     7     8    1
    21     8     9    1
    22     9    10    1
    23    10    11    1
    24    11    12   am
    25    12    13    2
    26    12    16    1
    27    16    17    1
    28    16    18    1
    29    18    19    1
    30    19    20   ar
    31    20    21   ar
    32    21    22   ar
    33    22    23    1
    34    22    24   ar
    35    24    25   ar
    36    11    14    1
    37    14    15    1
    38     7     1   ar
    39    15     8    1
    40    25    19   ar
    41    27    30    1
@<TRIPOS>MOLECULE
*****
 39 41 0 0 0
SMALL
GASTEIGER

@<TRIPOS>ATOM
      1 C          62.6128   84.5785   12.4324 C.ar    1  UNL1        0.0097
      2 C          62.3492   83.1261   12.1659 C.ar    1  UNL1        0.0099
      3 C          62.8699   82.0837   13.1104 C.ar    1  UNL1        0.0575
      4 CL         62.6062   80.6313   12.8438 Cl      1  UNL1       -0.0823
      5 C          63.6541   82.4936   14.3216 C.ar    1  UNL1        0.0126
      6 C          63.9177   83.9460   14.5881 C.ar    1  UNL1        0.0151
      7 C          63.3971   84.9884   13.6435 C.ar    1  UNL1        0.0455
      8 N          63.6607   86.4409   13.9101 N.pl3   1  UNL1       -0.3043
      9 C          63.8433   87.3925   12.7650 C.3     1  UNL1        0.1123
     10 C          64.1070   88.8448   13.0316 C.3     1  UNL1        0.1148
     11 N          64.1879   89.3457   14.4432 N.am    1  UNL1       -0.2760
     12 C          64.4516   90.7981   14.7097 C.2     1  UNL1        0.2256
     13 O          64.5325   91.2989   16.1213 O.2     1  UNL1       -0.2749
     14 C          64.0053   88.3941   15.5883 C.3     1  UNL1        0.1148
     15 C          63.7417   86.9417   15.3217 C.3     1  UNL1        0.1123
     16 C          64.6342   91.7496   13.5647 C.3     1  UNL1        0.0811
     17 C          63.6513   91.7572   12.4317 C.3     1  UNL1        0.0099
     18 C          65.7998   92.6937   13.5526 C.3     1  UNL1        0.0354
     19 C          66.2814   93.2741   12.2560 C.ar    1  UNL1       -0.0217
     20 C          66.1404   94.7444   11.9942 C.ar    1  UNL1       -0.0034
     21 C          66.6221   95.3249   10.6977 C.ar    1  UNL1        0.0111
     22 C          67.2447   94.4351    9.6629 C.ar    1  UNL1        0.0577
     23 CL         67.7263   95.0156    8.3664 Cl      1  UNL1       -0.0822
     24 C          67.3857   92.9649    9.9247 C.ar    1  UNL1        0.0111
     25 C          66.9040   92.3844   11.2213 C.ar    1  UNL1       -0.0034
     26 C          62.0922   85.6209   11.4878 C.3     1  UNL1        0.0953
     27 N          60.8389   86.3752   11.8200 N.am    1  UNL1       -0.3021
     28 C          60.4739   87.6036   11.0404 C.2     1  UNL1        0.2241
     29 O          59.2206   88.3579   11.3727 O.2     1  UNL1       -0.2750
     30 H          60.2559   86.0640   12.5497 H       1  UNL1        0.1497
     31 C          61.3622   88.0778    9.9286 C.3     1  UNL1        0.1023
     32 C          60.8200   88.9994    8.8766 C.3     1  UNL1        0.0818
     33 N          59.8489   88.4840    7.8562 N.3     1  UNL1       -0.2699
     34 C          59.3996   87.0537    7.9037 C.3     1  UNL1        0.0897
     35 C          59.3270   89.3990    6.7882 C.3     1  UNL1        0.0897
     36 C          62.8247   85.9091   10.2110 C.3     1  UNL1        0.0242
     37 C          63.8716   83.5986    9.6492 C.3     1  UNL1        0.0001
     38 C          63.0847   84.8047    9.2298 C.3     1  UNL1        0.0020
     39 C          62.5577   84.9065    7.8291 C.3     1  UNL1        0.0001
@<TRIPOS>BOND
     1    37    38    1
     2    38    39    1
     3    38    36    1
     4    26    36    1
     5    26    27    1
     6    27    28   am
     7    28    29    2
     8    28    31    1
     9    31    32    1
    10    32    33    1
    11    33    34    1
    12    33    35    1
    13    26     1    1
    14     1     2   ar
    15     2     3   ar
    16     3     4    1
    17     3     5   ar
    18     5     6   ar
    19     6     7   ar
    20     7     8    1
    21     8     9    1
    22     9    10    1
    23    10    11    1
    24    11    12   am
    25    12    13    2
    26    12    16    1
    27    16    17    1
    28    16    18    1
    29    18    19    1
    30    19    20   ar
    31    20    21   ar
    32    21    22   ar
    33    22    23    1
    34    22    24   ar
    35    24    25   ar
    36    11    14    1
    37    14    15    1
    38     7     1   ar
    39    15     8    1
    40    25    19   ar
    41    27    30    1
@<TRIPOS>MOLECULE
*****
 39 41 0 0 0
SMALL
GASTEIGER

@<TRIPOS>ATOM
      1 C          61.1827   87.1126    9.6522 C.ar    1  UNL1        0.0097
      2 C          60.2213   86.2944    8.8421 C.ar    1  UNL1        0.0099
      3 C          59.2191   86.9738    7.9567 C.ar    1  UNL1        0.0575
      4 CL         58.2576   86.1555    7.1466 Cl      1  UNL1       -0.0823
      5 C          59.1783   88.4713    7.8813 C.ar    1  UNL1        0.0126
      6 C          60.1397   89.2895    8.6914 C.ar    1  UNL1        0.0151
      7 C          61.1419   88.6101    9.5768 C.ar    1  UNL1        0.0455
      8 N          62.1034   89.4283   10.3869 N.pl3   1  UNL1       -0.3043
      9 C          62.4334   89.0234   11.7930 C.3     1  UNL1        0.1123
     10 C          63.3948   89.8415   12.6031 C.3     1  UNL1        0.1148
     11 N          64.0262   91.0647   12.0071 N.am    1  UNL1       -0.2760
     12 C          64.9876   91.8829   12.8172 C.2     1  UNL1        0.2256
     13 O          65.6190   93.1060   12.2212 O.2     1  UNL1       -0.2749
     14 C          63.6962   91.4697   10.6010 C.3     1  UNL1        0.1148
     15 C          62.7347   90.6514    9.7909 C.3     1  UNL1        0.1123
     16 C          65.3176   91.4779   14.2233 C.3     1  UNL1        0.0811
     17 C          66.7495   91.3830   14.6600 C.3     1  UNL1        0.0099
     18 C          64.2158   91.1679   15.1927 C.3     1  UNL1        0.0354
     19 C          63.9677   89.7510   15.6181 C.ar    1  UNL1       -0.0217
     20 C          64.5189   88.6167   14.8060 C.ar    1  UNL1       -0.0034
     21 C          64.2709   87.1998   15.2314 C.ar    1  UNL1        0.0111
     22 C          63.4715   86.9173   16.4689 C.ar    1  UNL1        0.0577
     23 CL         63.2235   85.5004   16.8943 Cl      1  UNL1       -0.0822
     24 C          62.9203   88.0516   17.2809 C.ar    1  UNL1        0.0111
     25 C          63.1684   89.4685   16.8555 C.ar    1  UNL1       -0.0034
     26 C          62.1849   86.4332   10.5377 C.3     1  UNL1        0.0953
     27 N          61.9071   86.2778   12.0035 N.am    1  UNL1       -0.3021
     28 C          62.2186   84.9824   12.6927 C.2     1  UNL1        0.2241
     29 O          61.9407   84.8270   14.1585 O.2     1  UNL1       -0.2750
     30 H          61.5202   87.0259   12.5132 H       1  UNL1        0.1497
     31 C          62.8081   83.8425   11.9161 C.3     1  UNL1        0.1023
     32 C          62.2547   82.4580   12.0798 C.3     1  UNL1        0.0818
     33 N          62.4508   81.7197   13.3706 N.3     1  UNL1       -0.2699
     34 C          61.2995   80.9948   14.0024 C.3     1  UNL1        0.0897
     35 C          63.7982   81.7062   14.0298 C.3     1  UNL1        0.0897
     36 C          63.4650   85.9093    9.9573 C.3     1  UNL1        0.0242
     37 C          62.8278   85.0051    7.6065 C.3     1  UNL1        0.0001
     38 C          63.4334   84.7879    8.9614 C.3     1  UNL1        0.0020
     39 C          64.0075   83.4495    9.3206 C.3     1  UNL1        0.0001
@<TRIPOS>BOND
     1    37    38    1
     2    38    39    1
     3    38    36    1
     4    26    36    1
     5    26    27    1
     6    27    28   am
     7    28    29    2
     8    28    31    1
     9    31    32    1
    10    32    33    1
    11    33    34    1
    12    33    35    1
    13    26     1    1
    14     1     2   ar
    15     2     3   ar
    16     3     4    1
    17     3     5   ar
    18     5     6   ar
    19     6     7   ar
    20     7     8    1
    21     8     9    1
    22     9    10    1
    23    10    11    1
    24    11    12   am
    25    12    13    2
    26    12    16    1
    27    16    17    1
    28    16    18    1
    29    18    19    1
    30    19    20   ar
    31    20    21   ar
    32    21    22   ar
    33    22    23    1
    34    22    24   ar
    35    24    25   ar
    36    11    14    1
    37    14    15    1
    38     7     1   ar
    39    15     8    1
    40    25    19   ar
    41    27    30    1
@<TRIPOS>MOLECULE
*****
 39 41 0 0 0
SMALL
GASTEIGER

@<TRIPOS>ATOM
      1 C          60.9563   88.4634    9.3640 C.ar    1  UNL1        0.0097
      2 C          60.2060   89.4227    8.4885 C.ar    1  UNL1        0.0099
      3 C          59.4671   88.9186    7.2844 C.ar    1  UNL1        0.0575
      4 CL         58.7168   89.8780    6.4088 Cl      1  UNL1       -0.0823
      5 C          59.4784   87.4550    6.9559 C.ar    1  UNL1        0.0126
      6 C          60.2287   86.4957    7.8315 C.ar    1  UNL1        0.0151
      7 C          60.9676   86.9999    9.0356 C.ar    1  UNL1        0.0455
      8 N          61.7179   86.0405    9.9112 N.pl3   1  UNL1       -0.3043
      9 C          61.3972   85.9519   11.3738 C.3     1  UNL1        0.1123
     10 C          62.1474   84.9925   12.2494 C.3     1  UNL1        0.1148
     11 N          63.2184   84.1217   11.6624 N.am    1  UNL1       -0.2760
     12 C          63.9687   83.1623   12.5380 C.2     1  UNL1        0.2256
     13 O          65.0397   82.2915   11.9510 O.2     1  UNL1       -0.2749
     14 C          63.5392   84.2102   10.1998 C.3     1  UNL1        0.1148
     15 C          62.7889   85.1697    9.3242 C.3     1  UNL1        0.1123
     16 C          63.6479   83.0737   14.0006 C.3     1  UNL1        0.0811
     17 C          62.4638   82.2769   14.4619 C.3     1  UNL1        0.0099
     18 C          64.5114   83.7820   15.0020 C.3     1  UNL1        0.0354
     19 C          64.1563   85.1685   15.4510 C.ar    1  UNL1       -0.0217
     20 C          63.3064   85.3672   16.6710 C.ar    1  UNL1       -0.0034
     21 C          62.9514   86.7537   17.1199 C.ar    1  UNL1        0.0111
     22 C          63.4462   87.9415   16.3489 C.ar    1  UNL1        0.0577
     23 CL         63.0912   89.3280   16.7978 Cl      1  UNL1       -0.0822
     24 C          64.2960   87.7427   15.1289 C.ar    1  UNL1        0.0111
     25 C          64.6511   86.3562   14.6800 C.ar    1  UNL1       -0.0034
     26 C          61.6952   88.9676   10.5681 C.3     1  UNL1        0.0953
     27 N          61.0060   89.0312   11.8988 N.am    1  UNL1       -0.3021
     28 C          61.7318   89.5737   13.0942 C.2     1  UNL1        0.2241
     29 O          61.0424   89.6373   14.4250 O.2     1  UNL1       -0.2750
     30 H          60.0772   88.7169   11.9876 H       1  UNL1        0.1497
     31 C          63.1468   90.0526   12.9589 C.3     1  UNL1        0.1023
     32 C          63.5713   91.3328   13.6152 C.3     1  UNL1        0.0818
     33 N          65.0294   91.6406   13.7858 N.3     1  UNL1       -0.2699
     34 C          65.6474   92.7837   13.0366 C.3     1  UNL1        0.0897
     35 C          65.8697   90.8051   14.7056 C.3     1  UNL1        0.0897
     36 C          63.1234   89.4081   10.4415 C.3     1  UNL1        0.0242
     37 C          62.3405   91.7920    9.7674 C.3     1  UNL1        0.0001
     38 C          63.4417   90.8409   10.1316 C.3     1  UNL1        0.0020
     39 C          64.8613   91.3225   10.1861 C.3     1  UNL1        0.0001
@<TRIPOS>BOND
     1    37    38    1
     2    38    39    1
     3    38    36    1
     4    26    36    1
     5    26    27    1
     6    27    28   am
     7    28    29    2
     8    28    31    1
     9    31    32    1
    10    32    33    1
    11    33    34    1
    12    33    35    1
    13    26     1    1
    14     1     2   ar
    15     2     3   ar
    16     3     4    1
    17     3     5   ar
    18     5     6   ar
    19     6     7   ar
    20     7     8    1
    21     8     9    1
    22     9    10    1
    23    10    11    1
    24    11    12   am
    25    12    13    2
    26    12    16    1
    27    16    17    1
    28    16    18    1
    29    18    19    1
    30    19    20   ar
    31    20    21   ar
    32    21    22   ar
    33    22    23    1
    34    22    24   ar
    35    24    25   ar
    36    11    14    1
    37    14    15    1
    38     7     1   ar
    39    15     8    1
    40    25    19   ar
    41    27    30    1
