@<TRIPOS>MOLECULE
*****
 29 33 0 0 0
SMALL
GASTEIGER

@<TRIPOS>ATOM
      1 C          63.7202   86.4098   15.4233 C.ar    1  UNL1        0.2076
      2 N          62.9253   86.0423   16.6411 N.ar    1  UNL1       -0.1277
      3 N          62.6074   87.3051   17.3856 N.ar    1  UNL1       -0.1271
      4 C          63.2059   88.4531   16.6279 C.ar    1  UNL1        0.1865
      5 C          63.2135   89.9307   16.8856 C.ar    1  UNL1        0.0423
      6 C          63.9088   90.8551   15.9305 C.ar    1  UNL1        0.0246
      7 C          64.5965   90.3017   14.7178 C.ar    1  UNL1        0.1089
      8 N          64.5889   88.8240   14.4601 N.ar    1  UNL1       -0.1619
      9 N          63.8936   87.8997   15.4152 N.ar    1  UNL1       -0.1915
     10 C          65.2918   91.2260   13.7627 C.ar    1  UNL1        0.0679
     11 C          64.7203   91.7674   12.4859 C.ar    1  UNL1        0.0248
     12 C          65.7560   92.6472   11.8509 C.ar    1  UNL1        0.0678
     13 C          65.6064   93.3937   10.5584 C.3     1  UNL1        0.0528
     14 N          66.9676   92.6495   12.7352 N.ar    1  UNL1       -0.2134
     15 S          66.6808   91.7712   13.9168 S.2     1  UNL1        0.0142
     16 C          64.2489   85.4550   14.3943 C.3     1  UNL1        0.2721
     17 O          63.3149   84.5103   13.6977 O.3     1  UNL1       -0.4671
     18 C          61.1325   86.7483    9.2843 C.ar    1  UNL1        0.1402
     19 C          60.9877   86.9968   10.7565 C.ar    1  UNL1        0.0371
     20 C          61.7634   86.1680   11.7369 C.ar    1  UNL1        0.0076
     21 C          62.6840   85.0906   11.2452 C.ar    1  UNL1        0.0519
     22 C          63.4597   84.2618   12.2256 C.ar    1  UNL1        0.1421
     23 C          64.3803   83.1844   11.7338 C.ar    1  UNL1        0.0576
     24 C          64.5251   82.9359   10.2616 C.ar    1  UNL1        0.1019
     25 N          63.7494   83.7647    9.2812 N.ar    1  UNL1       -0.2435
     26 C          62.8288   84.8421    9.7730 C.ar    1  UNL1        0.0872
     27 C          62.0530   85.6710    8.7926 C.ar    1  UNL1        0.0561
     28 C          59.0303   87.0937    7.7973 C.3     1  UNL1        0.2525
     29 O          60.3567   87.5772    8.3039 O.3     1  UNL1       -0.4714
@<TRIPOS>BOND
     1    28    29    1
     2    29    18    1
     3    18    19   ar
     4    19    20   ar
     5    20    21   ar
     6    21    22   ar
     7    22    17    1
     8    17    16    1
     9    16     1    1
    10     1     2   ar
    11     2     3   ar
    12     3     4   ar
    13     4     5   ar
    14     5     6   ar
    15     6     7   ar
    16     7    10    1
    17    10    11   ar
    18    11    12   ar
    19    12    13    1
    20    12    14   ar
    21    14    15   ar
    22     7     8   ar
    23     8     9   ar
    24    22    23   ar
    25    23    24   ar
    26    24    25   ar
    27    25    26   ar
    28    26    27   ar
    29    27    18   ar
    30    26    21   ar
    31     9     1   ar
    32     9     4   ar
    33    15    10   ar
@<TRIPOS>MOLECULE
*****
 29 33 0 0 0
SMALL
GASTEIGER

@<TRIPOS>ATOM
      1 C          62.4981   89.6014   11.9458 C.ar    1  UNL1        0.2076
      2 N          61.9527   90.4403   10.8282 N.ar    1  UNL1       -0.1277
      3 N          61.5216   89.5197    9.7253 N.ar    1  UNL1       -0.1271
      4 C          61.8005   88.1117   10.1612 C.ar    1  UNL1        0.1865
      5 C          61.5829   86.7902    9.4858 C.ar    1  UNL1        0.0423
      6 C          61.9687   85.5191   10.1827 C.ar    1  UNL1        0.0246
      7 C          62.5722   85.5697   11.5550 C.ar    1  UNL1        0.1089
      8 N          62.7898   86.8913   12.2304 N.ar    1  UNL1       -0.1619
      9 N          62.4040   88.1623   11.5335 N.ar    1  UNL1       -0.1915
     10 C          62.9581   84.2988   12.2520 C.ar    1  UNL1        0.0679
     11 C          62.4428   82.9267   11.9327 C.ar    1  UNL1        0.0248
     12 C          63.0933   81.9567   12.8739 C.ar    1  UNL1        0.0678
     13 C          62.8662   80.4743   12.9082 C.3     1  UNL1        0.0528
     14 N          64.0106   82.7292   13.7749 N.ar    1  UNL1       -0.2134
     15 S          63.9271   84.1767   13.3905 S.2     1  UNL1        0.0142
     16 C          63.0420   90.1120   13.2471 C.3     1  UNL1        0.2721
     17 O          64.5183   90.0725   13.5101 O.3     1  UNL1       -0.4671
     18 C          65.9868   94.4123   10.6361 C.ar    1  UNL1        0.1402
     19 C          65.2493   93.1481   10.3076 C.ar    1  UNL1        0.0371
     20 C          65.0056   92.1229   11.3751 C.ar    1  UNL1        0.0076
     21 C          65.4994   92.3618   12.7711 C.ar    1  UNL1        0.0519
     22 C          65.2557   91.3366   13.8386 C.ar    1  UNL1        0.1421
     23 C          65.7495   91.5756   15.2347 C.ar    1  UNL1        0.0576
     24 C          66.4870   92.8398   15.5633 C.ar    1  UNL1        0.1019
     25 N          66.7307   93.8650   14.4958 N.ar    1  UNL1       -0.2435
     26 C          66.2369   93.6260   13.0997 C.ar    1  UNL1        0.0872
     27 C          66.4805   94.6512   12.0322 C.ar    1  UNL1        0.0561
     28 C          67.4813   95.3777    8.7429 C.3     1  UNL1        0.2525
     29 O          66.2305   95.4375    9.5686 O.3     1  UNL1       -0.4714
@<TRIPOS>BOND
     1    28    29    1
     2    29    18    1
     3    18    19   ar
     4    19    20   ar
     5    20    21   ar
     6    21    22   ar
     7    22    17    1
     8    17    16    1
     9    16     1    1
    10     1     2   ar
    11     2     3   ar
    12     3     4   ar
    13     4     5   ar
    14     5     6   ar
    15     6     7   ar
    16     7    10    1
    17    10    11   ar
    18    11    12   ar
    19    12    13    1
    20    12    14   ar
    21    14    15   ar
    22     7     8   ar
    23     8     9   ar
    24    22    23   ar
    25    23    24   ar
    26    24    25   ar
    27    25    26   ar
    28    26    27   ar
    29    27    18   ar
    30    26    21   ar
    31     9     1   ar
    32     9     4   ar
    33    15    10   ar
@<TRIPOS>MOLECULE
*****
 29 33 0 0 0
SMALL
GASTEIGER

@<TRIPOS>ATOM
      1 C          64.5343   90.6069   13.9903 C.ar    1  UNL1        0.2076
      2 N          65.2427   91.9290   14.0044 N.ar    1  UNL1       -0.1277
      3 N          65.0366   92.5796   12.6687 N.ar    1  UNL1       -0.1271
      4 C          64.2009   91.6595   11.8289 C.ar    1  UNL1        0.1865
      5 C          63.6824   91.7744   10.4261 C.ar    1  UNL1        0.0423
      6 C          62.8535   90.6701    9.8400 C.ar    1  UNL1        0.0246
      7 C          62.5431   89.4510   10.6568 C.ar    1  UNL1        0.1089
      8 N          63.0615   89.3361   12.0597 N.ar    1  UNL1       -0.1619
      9 N          63.8904   90.4404   12.6458 N.ar    1  UNL1       -0.1915
     10 C          61.7142   88.3467   10.0708 C.ar    1  UNL1        0.0679
     11 C          60.6300   88.5064    9.0466 C.ar    1  UNL1        0.0248
     12 C          60.0697   87.1472    8.7489 C.ar    1  UNL1        0.0678
     13 C          58.9654   86.8414    7.7809 C.3     1  UNL1        0.0528
     14 N          60.8076   86.1474    9.5891 N.ar    1  UNL1       -0.2134
     15 S          61.8239   86.8887   10.4061 S.2     1  UNL1        0.0142
     16 C          64.4794   89.6238   15.1220 C.3     1  UNL1        0.2721
     17 O          64.6545   88.1588   14.8519 O.3     1  UNL1       -0.4671
     18 C          63.3638   82.9744   14.0114 C.ar    1  UNL1        0.1402
     19 C          64.1785   83.9796   13.2526 C.ar    1  UNL1        0.0371
     20 C          64.3372   85.3726   13.7857 C.ar    1  UNL1        0.0076
     21 C          63.6812   85.7605   15.0776 C.ar    1  UNL1        0.0519
     22 C          63.8398   87.1536   15.6107 C.ar    1  UNL1        0.1421
     23 C          63.1838   87.5415   16.9026 C.ar    1  UNL1        0.0576
     24 C          62.3690   86.5363   17.6615 C.ar    1  UNL1        0.1019
     25 N          62.2103   85.1433   17.1284 N.ar    1  UNL1       -0.2435
     26 C          62.8664   84.7554   15.8364 C.ar    1  UNL1        0.0872
     27 C          62.7078   83.3623   15.3033 C.ar    1  UNL1        0.0561
     28 C          61.9556   80.8045   13.7699 C.3     1  UNL1        0.2525
     29 O          63.2052   81.5813   13.4783 O.3     1  UNL1       -0.4714
@<TRIPOS>BOND
     1    28    29    1
     2    29    18    1
     3    18    19   ar
     4    19    20   ar
     5    20    21   ar
     6    21    22   ar
     7    22    17    1
     8    17    16    1
     9    16     1    1
    10     1     2   ar
    11     2     3   ar
    12     3     4   ar
    13     4     5   ar
    14     5     6   ar
    15     6     7   ar
    16     7    10    1
    17    10    11   ar
    18    11    12   ar
    19    12    13    1
    20    12    14   ar
    21    14    15   ar
    22     7     8   ar
    23     8     9   ar
    24    22    23   ar
    25    23    24   ar
    26    24    25   ar
    27    25    26   ar
    28    26    27   ar
    29    27    18   ar
    30    26    21   ar
    31     9     1   ar
    32     9     4   ar
    33    15    10   ar
@<TRIPOS>MOLECULE
*****
 29 33 0 0 0
SMALL
GASTEIGER

@<TRIPOS>ATOM
      1 C          63.2614   89.8676   13.0193 C.ar    1  UNL1        0.2076
      2 N          63.0886   89.4160   14.4392 N.ar    1  UNL1       -0.1277
      3 N          64.0289   90.2108   15.2961 N.ar    1  UNL1       -0.1271
      4 C          64.7828   91.1536   14.4057 C.ar    1  UNL1        0.1865
      5 C          65.8399   92.1778   14.6944 C.ar    1  UNL1        0.0423
      6 C          66.4228   92.9899   13.5759 C.ar    1  UNL1        0.0246
      7 C          65.9484   92.7778   12.1688 C.ar    1  UNL1        0.1089
      8 N          64.8913   91.7535   11.8801 N.ar    1  UNL1       -0.1619
      9 N          64.3085   90.9414   12.9986 N.ar    1  UNL1       -0.1915
     10 C          66.5313   93.5898   11.0504 C.ar    1  UNL1        0.0679
     11 C          66.4032   95.0745   10.8793 C.ar    1  UNL1        0.0248
     12 C          67.1372   95.4621    9.6298 C.ar    1  UNL1        0.0678
     13 C          67.2668   96.8510    9.0783 C.3     1  UNL1        0.0528
     14 N          67.7190   94.2169    9.0289 N.ar    1  UNL1       -0.2134
     15 S          67.3445   93.0598    9.9068 S.2     1  UNL1        0.0142
     16 C          62.5176   89.3382   11.8290 C.3     1  UNL1        0.2721
     17 O          61.8338   88.0053   11.9040 O.3     1  UNL1       -0.4671
     18 C          63.5907   82.9318   12.5540 C.ar    1  UNL1        0.1402
     19 C          63.2034   84.0278   13.5020 C.ar    1  UNL1        0.0371
     20 C          62.7468   85.3536   12.9693 C.ar    1  UNL1        0.0076
     21 C          62.6776   85.5834   11.4887 C.ar    1  UNL1        0.0519
     22 C          62.2211   86.9093   10.9560 C.ar    1  UNL1        0.1421
     23 C          62.1519   87.1391    9.4754 C.ar    1  UNL1        0.0576
     24 C          62.5392   86.0430    8.5273 C.ar    1  UNL1        0.1019
     25 N          62.9957   84.7172    9.0600 N.ar    1  UNL1       -0.2435
     26 C          63.0649   84.4874   10.5407 C.ar    1  UNL1        0.0872
     27 C          63.5215   83.1616   11.0734 C.ar    1  UNL1        0.0561
     28 C          63.0458   80.6322   13.6335 C.3     1  UNL1        0.2525
     29 O          64.0472   81.6059   13.0867 O.3     1  UNL1       -0.4714
@<TRIPOS>BOND
     1    28    29    1
     2    29    18    1
     3    18    19   ar
     4    19    20   ar
     5    20    21   ar
     6    21    22   ar
     7    22    17    1
     8    17    16    1
     9    16     1    1
    10     1     2   ar
    11     2     3   ar
    12     3     4   ar
    13     4     5   ar
    14     5     6   ar
    15     6     7   ar
    16     7    10    1
    17    10    11   ar
    18    11    12   ar
    19    12    13    1
    20    12    14   ar
    21    14    15   ar
    22     7     8   ar
    23     8     9   ar
    24    22    23   ar
    25    23    24   ar
    26    24    25   ar
    27    25    26   ar
    28    26    27   ar
    29    27    18   ar
    30    26    21   ar
    31     9     1   ar
    32     9     4   ar
    33    15    10   ar
@<TRIPOS>MOLECULE
*****
 29 33 0 0 0
SMALL
GASTEIGER

@<TRIPOS>ATOM
      1 C          64.2244   86.9597   14.5853 C.ar    1  UNL1        0.2076
      2 N          64.6825   86.0567   15.6919 N.ar    1  UNL1       -0.1277
      3 N          64.3659   84.6442   15.2986 N.ar    1  UNL1       -0.1271
      4 C          63.7120   84.6743   13.9489 C.ar    1  UNL1        0.1865
      5 C          63.1850   83.5835   13.0645 C.ar    1  UNL1        0.0423
      6 C          62.5704   83.9238   11.7390 C.ar    1  UNL1        0.0246
      7 C          62.4830   85.3548   11.2982 C.ar    1  UNL1        0.1089
      8 N          63.0100   86.4456   12.1828 N.ar    1  UNL1       -0.1619
      9 N          63.6245   86.1053   13.5081 N.ar    1  UNL1       -0.1915
     10 C          61.8684   85.6951    9.9729 C.ar    1  UNL1        0.0679
     11 C          60.5797   86.4332    9.7621 C.ar    1  UNL1        0.0248
     12 C          60.3495   86.5513    8.2846 C.ar    1  UNL1        0.0678
     13 C          59.1785   87.2176    7.6252 C.3     1  UNL1        0.0528
     14 N          61.4960   85.8862    7.5822 N.ar    1  UNL1       -0.2134
     15 S          62.4347   85.3570    8.6256 S.2     1  UNL1        0.0142
     16 C          64.3448   88.4547   14.5603 C.3     1  UNL1        0.2721
     17 O          63.1741   89.2946   14.1430 O.3     1  UNL1       -0.4671
     18 C          66.0532   93.2380   11.8170 C.ar    1  UNL1        0.1402
     19 C          66.0717   92.5982   13.1736 C.ar    1  UNL1        0.0371
     20 C          65.1059   91.4970   13.4967 C.ar    1  UNL1        0.0076
     21 C          64.1215   91.0355   12.4633 C.ar    1  UNL1        0.0519
     22 C          63.1556   89.9343   12.7864 C.ar    1  UNL1        0.1421
     23 C          62.1712   89.4729   11.7530 C.ar    1  UNL1        0.0576
     24 C          62.1527   90.1127   10.3964 C.ar    1  UNL1        0.1019
     25 N          63.1185   91.2139   10.0732 N.ar    1  UNL1       -0.2435
     26 C          64.1030   91.6753   11.1067 C.ar    1  UNL1        0.0872
     27 C          65.0688   92.7765   10.7836 C.ar    1  UNL1        0.0561
     28 C          66.6241   95.4274   10.5402 C.3     1  UNL1        0.2525
     29 O          67.0191   94.3392   11.4939 O.3     1  UNL1       -0.4714
@<TRIPOS>BOND
     1    28    29    1
     2    29    18    1
     3    18    19   ar
     4    19    20   ar
     5    20    21   ar
     6    21    22   ar
     7    22    17    1
     8    17    16    1
     9    16     1    1
    10     1     2   ar
    11     2     3   ar
    12     3     4   ar
    13     4     5   ar
    14     5     6   ar
    15     6     7   ar
    16     7    10    1
    17    10    11   ar
    18    11    12   ar
    19    12    13    1
    20    12    14   ar
    21    14    15   ar
    22     7     8   ar
    23     8     9   ar
    24    22    23   ar
    25    23    24   ar
    26    24    25   ar
    27    25    26   ar
    28    26    27   ar
    29    27    18   ar
    30    26    21   ar
    31     9     1   ar
    32     9     4   ar
    33    15    10   ar
@<TRIPOS>MOLECULE
*****
 29 33 0 0 0
SMALL
GASTEIGER

@<TRIPOS>ATOM
      1 C          61.0939   89.3252   11.3275 C.ar    1  UNL1        0.2076
      2 N          60.3161   90.1213   10.3220 N.ar    1  UNL1       -0.1277
      3 N          60.1153   89.2643    9.1074 N.ar    1  UNL1       -0.1271
      4 C          60.7691   87.9385    9.3623 C.ar    1  UNL1        0.1865
      5 C          60.8919   86.7020    8.5223 C.ar    1  UNL1        0.0423
      6 C          61.6195   85.5029    9.0543 C.ar    1  UNL1        0.0246
      7 C          62.2242   85.5406   10.4265 C.ar    1  UNL1        0.1089
      8 N          62.1014   86.7772   11.2665 N.ar    1  UNL1       -0.1619
      9 N          61.3739   87.9762   10.7344 N.ar    1  UNL1       -0.1915
     10 C          62.9518   84.3416   10.9586 C.ar    1  UNL1        0.0679
     11 C          62.7895   83.7471   12.3262 C.ar    1  UNL1        0.0248
     12 C          63.7068   82.5647   12.4293 C.ar    1  UNL1        0.0678
     13 C          63.8668   81.6748   13.6262 C.3     1  UNL1        0.0528
     14 N          64.4359   82.4285   11.1255 N.ar    1  UNL1       -0.2134
     15 S          63.9693   83.5267   10.2166 S.2     1  UNL1        0.0142
     16 C          61.5174   89.7955   12.6875 C.3     1  UNL1        0.2721
     17 O          62.9718   89.8191   13.0537 O.3     1  UNL1       -0.4671
     18 C          66.7226   93.0566   15.2216 C.ar    1  UNL1        0.1402
     19 C          65.8276   91.9868   15.7732 C.ar    1  UNL1        0.0371
     20 C          64.8757   91.2642   14.8667 C.ar    1  UNL1        0.0076
     21 C          64.8188   91.6115   13.4086 C.ar    1  UNL1        0.0519
     22 C          63.8669   90.8889   12.5021 C.ar    1  UNL1        0.1421
     23 C          63.8100   91.2361   11.0440 C.ar    1  UNL1        0.0576
     24 C          64.7051   92.3060   10.4923 C.ar    1  UNL1        0.1019
     25 N          65.6570   93.0285   11.3988 N.ar    1  UNL1       -0.2435
     26 C          65.7139   92.6813   12.8570 C.ar    1  UNL1        0.0872
     27 C          66.6658   93.4038   13.7634 C.ar    1  UNL1        0.0561
     28 C          69.1444   93.7746   15.8292 C.3     1  UNL1        0.2525
     29 O          67.6745   93.7792   16.1281 O.3     1  UNL1       -0.4714
@<TRIPOS>BOND
     1    28    29    1
     2    29    18    1
     3    18    19   ar
     4    19    20   ar
     5    20    21   ar
     6    21    22   ar
     7    22    17    1
     8    17    16    1
     9    16     1    1
    10     1     2   ar
    11     2     3   ar
    12     3     4   ar
    13     4     5   ar
    14     5     6   ar
    15     6     7   ar
    16     7    10    1
    17    10    11   ar
    18    11    12   ar
    19    12    13    1
    20    12    14   ar
    21    14    15   ar
    22     7     8   ar
    23     8     9   ar
    24    22    23   ar
    25    23    24   ar
    26    24    25   ar
    27    25    26   ar
    28    26    27   ar
    29    27    18   ar
    30    26    21   ar
    31     9     1   ar
    32     9     4   ar
    33    15    10   ar
@<TRIPOS>MOLECULE
*****
 29 33 0 0 0
SMALL
GASTEIGER

@<TRIPOS>ATOM
      1 C          63.6422   89.2568   14.6456 C.ar    1  UNL1        0.2076
      2 N          63.4548   90.1658   15.8239 N.ar    1  UNL1       -0.1277
      3 N          63.1983   89.3132   17.0310 N.ar    1  UNL1       -0.1271
      4 C          63.2272   87.8770   16.5988 C.ar    1  UNL1        0.1865
      5 C          63.0391   86.5967   17.3571 C.ar    1  UNL1        0.0423
      6 C          63.1254   85.2813   16.6411 C.ar    1  UNL1        0.0246
      7 C          63.3997   85.2465   15.1669 C.ar    1  UNL1        0.1089
      8 N          63.5878   86.5269   14.4085 N.ar    1  UNL1       -0.1619
      9 N          63.5015   87.8422   15.1245 N.ar    1  UNL1       -0.1915
     10 C          63.4860   83.9312   14.4509 C.ar    1  UNL1        0.0679
     11 C          62.6072   82.7390   14.6882 C.ar    1  UNL1        0.0248
     12 C          63.0443   81.6481   13.7559 C.ar    1  UNL1        0.0678
     13 C          62.4388   80.2795   13.6548 C.3     1  UNL1        0.0528
     14 N          64.1932   82.1663   12.9425 N.ar    1  UNL1       -0.2134
     15 S          64.4661   83.5773   13.3720 S.2     1  UNL1        0.0142
     16 C          63.9213   89.6867   13.2358 C.3     1  UNL1        0.2721
     17 O          63.5238   88.8041   12.0900 O.3     1  UNL1       -0.4671
     18 C          60.8810   86.2492    8.1229 C.ar    1  UNL1        0.1402
     19 C          62.1300   85.9535    8.8992 C.ar    1  UNL1        0.0371
     20 C          62.5946   86.9037    9.9628 C.ar    1  UNL1        0.0076
     21 C          61.8103   88.1496   10.2501 C.ar    1  UNL1        0.0519
     22 C          62.2749   89.0998   11.3137 C.ar    1  UNL1        0.1421
     23 C          61.4906   90.3457   11.6010 C.ar    1  UNL1        0.0576
     24 C          60.2415   90.6414   10.8247 C.ar    1  UNL1        0.1019
     25 N          59.7769   89.6912    9.7611 N.ar    1  UNL1       -0.2435
     26 C          60.5613   88.4453    9.4738 C.ar    1  UNL1        0.0872
     27 C          60.0967   87.4951    8.4102 C.ar    1  UNL1        0.0561
     28 C          61.4181   84.5145    6.2648 C.3     1  UNL1        0.2525
     29 O          60.4164   85.2990    7.0592 O.3     1  UNL1       -0.4714
@<TRIPOS>BOND
     1    28    29    1
     2    29    18    1
     3    18    19   ar
     4    19    20   ar
     5    20    21   ar
     6    21    22   ar
     7    22    17    1
     8    17    16    1
     9    16     1    1
    10     1     2   ar
    11     2     3   ar
    12     3     4   ar
    13     4     5   ar
    14     5     6   ar
    15     6     7   ar
    16     7    10    1
    17    10    11   ar
    18    11    12   ar
    19    12    13    1
    20    12    14   ar
    21    14    15   ar
    22     7     8   ar
    23     8     9   ar
    24    22    23   ar
    25    23    24   ar
    26    24    25   ar
    27    25    26   ar
    28    26    27   ar
    29    27    18   ar
    30    26    21   ar
    31     9     1   ar
    32     9     4   ar
    33    15    10   ar
@<TRIPOS>MOLECULE
*****
 29 33 0 0 0
SMALL
GASTEIGER

@<TRIPOS>ATOM
      1 C          63.1305   90.1635   14.5996 C.ar    1  UNL1        0.2076
      2 N          62.8930   90.1384   16.0804 N.ar    1  UNL1       -0.1277
      3 N          63.8554   91.0943   16.7205 N.ar    1  UNL1       -0.1271
      4 C          64.6879   91.7103   15.6353 C.ar    1  UNL1        0.1865
      5 C          65.7959   92.7207   15.6713 C.ar    1  UNL1        0.0423
      6 C          66.4559   93.1558   14.3965 C.ar    1  UNL1        0.0246
      7 C          66.0079   92.5805   13.0857 C.ar    1  UNL1        0.1089
      8 N          64.8998   91.5701   13.0497 N.ar    1  UNL1       -0.1619
      9 N          64.2398   91.1350   14.3245 N.ar    1  UNL1       -0.1915
     10 C          66.6679   93.0156   11.8109 C.ar    1  UNL1        0.0679
     11 C          67.5087   92.1550   10.9152 C.ar    1  UNL1        0.0248
     12 C          67.9634   92.9953    9.7587 C.ar    1  UNL1        0.0678
     13 C          68.8264   92.5362    8.6209 C.3     1  UNL1        0.0528
     14 N          67.4036   94.3750    9.9398 N.ar    1  UNL1       -0.2134
     15 S          66.6029   94.3876   11.2081 S.2     1  UNL1        0.0142
     16 C          62.3889   89.3585   13.5738 C.3     1  UNL1        0.2721
     17 O          63.1151   88.8134   12.3798 O.3     1  UNL1       -0.4671
     18 C          59.8073   88.4967    8.1128 C.ar    1  UNL1        0.1402
     19 C          60.3940   89.6365    8.8915 C.ar    1  UNL1        0.0371
     20 C          61.3010   89.3621   10.0543 C.ar    1  UNL1        0.0076
     21 C          61.6213   87.9480   10.4383 C.ar    1  UNL1        0.0519
     22 C          62.5284   87.6736   11.6011 C.ar    1  UNL1        0.1421
     23 C          62.8487   86.2595   11.9851 C.ar    1  UNL1        0.0576
     24 C          62.2619   85.1196   11.2063 C.ar    1  UNL1        0.1019
     25 N          61.3549   85.3939   10.0435 N.ar    1  UNL1       -0.2435
     26 C          61.0346   86.8082    9.6595 C.ar    1  UNL1        0.0872
     27 C          60.1276   87.0825    8.4968 C.ar    1  UNL1        0.0561
     28 C          59.1777   89.9303    6.0396 C.3     1  UNL1        0.2525
     29 O          58.9002   88.7710    6.9500 O.3     1  UNL1       -0.4714
@<TRIPOS>BOND
     1    28    29    1
     2    29    18    1
     3    18    19   ar
     4    19    20   ar
     5    20    21   ar
     6    21    22   ar
     7    22    17    1
     8    17    16    1
     9    16     1    1
    10     1     2   ar
    11     2     3   ar
    12     3     4   ar
    13     4     5   ar
    14     5     6   ar
    15     6     7   ar
    16     7    10    1
    17    10    11   ar
    18    11    12   ar
    19    12    13    1
    20    12    14   ar
    21    14    15   ar
    22     7     8   ar
    23     8     9   ar
    24    22    23   ar
    25    23    24   ar
    26    24    25   ar
    27    25    26   ar
    28    26    27   ar
    29    27    18   ar
    30    26    21   ar
    31     9     1   ar
    32     9     4   ar
    33    15    10   ar
@<TRIPOS>MOLECULE
*****
 29 33 0 0 0
SMALL
GASTEIGER

@<TRIPOS>ATOM
      1 C          64.3581   86.8210   14.4823 C.ar    1  UNL1        0.2076
      2 N          65.0359   85.6512   15.1318 N.ar    1  UNL1       -0.1277
      3 N          64.6915   84.4209   14.3459 N.ar    1  UNL1       -0.1271
      4 C          63.8008   84.8304   13.2105 C.ar    1  UNL1        0.1865
      5 C          63.1507   84.0442   12.1109 C.ar    1  UNL1        0.0423
      6 C          62.2945   84.7414   11.0955 C.ar    1  UNL1        0.0246
      7 C          62.0884   86.2247   11.1798 C.ar    1  UNL1        0.1089
      8 N          62.7385   87.0109   12.2795 N.ar    1  UNL1       -0.1619
      9 N          63.5947   86.3137   13.2949 N.ar    1  UNL1       -0.1915
     10 C          61.2323   86.9219   10.1645 C.ar    1  UNL1        0.0679
     11 C          60.5477   86.2766    8.9962 C.ar    1  UNL1        0.0248
     12 C          59.8027   87.3427    8.2489 C.ar    1  UNL1        0.0678
     13 C          58.9782   87.1402    7.0122 C.3     1  UNL1        0.0528
     14 N          60.0269   88.6468    8.9553 N.ar    1  UNL1       -0.2134
     15 S          60.9104   88.3868   10.1392 S.2     1  UNL1        0.0142
     16 C          64.4307   88.2478   14.9398 C.3     1  UNL1        0.2721
     17 O          63.4668   89.2600   14.3955 O.3     1  UNL1       -0.4671
     18 C          67.0287   93.3250   14.5895 C.ar    1  UNL1        0.1402
     19 C          66.5617   92.3032   15.5833 C.ar    1  UNL1        0.0371
     20 C          65.5300   91.2888   15.1873 C.ar    1  UNL1        0.0076
     21 C          64.9655   91.2962   13.7977 C.ar    1  UNL1        0.0519
     22 C          63.9339   90.2818   13.4018 C.ar    1  UNL1        0.1421
     23 C          63.3694   90.2893   12.0121 C.ar    1  UNL1        0.0576
     24 C          63.8365   91.3112   11.0183 C.ar    1  UNL1        0.1019
     25 N          64.8681   92.3256   11.4142 N.ar    1  UNL1       -0.2435
     26 C          65.4326   92.3181   12.8039 C.ar    1  UNL1        0.0872
     27 C          66.4642   93.3325   13.1999 C.ar    1  UNL1        0.0561
     28 C          69.0782   94.0038   16.0348 C.3     1  UNL1        0.2525
     29 O          68.0604   94.3394   14.9854 O.3     1  UNL1       -0.4714
@<TRIPOS>BOND
     1    28    29    1
     2    29    18    1
     3    18    19   ar
     4    19    20   ar
     5    20    21   ar
     6    21    22   ar
     7    22    17    1
     8    17    16    1
     9    16     1    1
    10     1     2   ar
    11     2     3   ar
    12     3     4   ar
    13     4     5   ar
    14     5     6   ar
    15     6     7   ar
    16     7    10    1
    17    10    11   ar
    18    11    12   ar
    19    12    13    1
    20    12    14   ar
    21    14    15   ar
    22     7     8   ar
    23     8     9   ar
    24    22    23   ar
    25    23    24   ar
    26    24    25   ar
    27    25    26   ar
    28    26    27   ar
    29    27    18   ar
    30    26    21   ar
    31     9     1   ar
    32     9     4   ar
    33    15    10   ar
