@<TRIPOS>MOLECULE
*****
 33 36 0 0 0
SMALL
GASTEIGER

@<TRIPOS>ATOM
      1 C          62.8378   86.9649   12.2471 C.ar    1  UNL1        0.0186
      2 C          63.4958   87.9641   13.1519 C.ar    1  UNL1        0.0671
      3 N          63.1431   89.3368   12.6607 N.ar    1  UNL1       -0.3243
      4 C          62.2672   89.1860   11.4524 C.ar    1  UNL1        0.0602
      5 C          61.6171   90.1941   10.5518 C.ar    1  UNL1        0.0203
      6 C          60.7783   89.7363    9.3957 C.ar    1  UNL1        0.0387
      7 C          60.5896   88.2703    9.1401 C.ar    1  UNL1        0.1469
      8 C          61.2397   87.2622   10.0406 C.ar    1  UNL1        0.0387
      9 C          62.0785   87.7201   11.1967 C.ar    1  UNL1        0.0201
     10 C          63.0964   82.4877   12.6185 C.ar    1  UNL1        0.1901
     11 N          63.2773   83.1409   11.2804 N.ar    1  UNL1       -0.2196
     12 C          63.1911   84.6333   11.1566 C.ar    1  UNL1        0.1026
     13 C          62.9240   85.4725   12.3708 C.ar    1  UNL1        0.0396
     14 C          62.7431   84.8192   13.7090 C.ar    1  UNL1        0.1026
     15 N          62.8293   83.3268   13.8328 N.ar    1  UNL1       -0.2196
     16 C          62.1466   80.2467   13.5275 C.3     1  UNL1        0.0772
     17 S          63.1826   80.9953   12.7423 S.3     1  UNL1       -0.0748
     18 C          64.3554   87.6464   14.3393 C.3     1  UNL1        0.1809
     19 O          63.7488   87.5860   15.7098 O.3     1  UNL1       -0.3760
     20 H          63.4388   88.4689   15.9654 H       1  UNL1        0.2110
     21 C          63.5882   90.6329   13.2707 C.3     1  UNL1        0.1333
     22 C          64.6966   91.4191   12.6359 C.ar    1  UNL1        0.0110
     23 C          64.5387   91.9457   11.2402 C.ar    1  UNL1       -0.0016
     24 C          65.6471   92.7320   10.6053 C.ar    1  UNL1       -0.0002
     25 C          66.9136   92.9917   11.3661 C.ar    1  UNL1        0.0008
     26 C          67.0715   92.4651   12.7617 C.ar    1  UNL1        0.0111
     27 C          65.9631   91.6789   13.3966 C.ar    1  UNL1        0.0555
     28 CL         66.1211   91.1523   14.7922 Cl      1  UNL1       -0.0825
     29 O          59.7507   87.8125    7.9838 O.3     1  UNL1       -0.4045
     30 C          59.7955   86.3785    7.5461 C.3     1  UNL1        0.5753
     31 F          59.8402   84.9445    7.1084 F       1  UNL1       -0.1328
     32 F          58.3065   86.2847    7.7013 F       1  UNL1       -0.1328
     33 F          61.2844   86.4724    7.3909 F       1  UNL1       -0.1328
@<TRIPOS>BOND
     1    16    17    1
     2    17    10    1
     3    10    11   ar
     4    11    12   ar
     5    12    13   ar
     6    13     1    1
     7     1     2   ar
     8     2    18    1
     9    18    19    1
    10     2     3   ar
    11     3    21    1
    12    21    22    1
    13    22    23   ar
    14    23    24   ar
    15    24    25   ar
    16    25    26   ar
    17    26    27   ar
    18    27    28    1
    19     3     4   ar
    20     4     5   ar
    21     5     6   ar
    22     6     7   ar
    23     7    29    1
    24    29    30    1
    25    30    31    1
    26    30    32    1
    27    30    33    1
    28     7     8   ar
    29     8     9   ar
    30    13    14   ar
    31    14    15   ar
    32    15    10   ar
    33     9     1   ar
    34    27    22   ar
    35     9     4   ar
    36    19    20    1
@<TRIPOS>MOLECULE
*****
 33 36 0 0 0
SMALL
GASTEIGER

@<TRIPOS>ATOM
      1 C          62.6292   87.5889   11.0389 C.ar    1  UNL1        0.0186
      2 C          62.6481   89.0818   11.1834 C.ar    1  UNL1        0.0671
      3 N          63.1916   89.4091   12.5426 N.ar    1  UNL1       -0.3243
      4 C          63.5087   88.1184   13.2381 C.ar    1  UNL1        0.0602
      5 C          64.0690   87.8222   14.5976 C.ar    1  UNL1        0.0203
      6 C          64.2817   86.4011   15.0278 C.ar    1  UNL1        0.0387
      7 C          63.9341   85.2762   14.0984 C.ar    1  UNL1        0.1469
      8 C          63.3738   85.5724   12.7389 C.ar    1  UNL1        0.0387
      9 C          63.1611   86.9935   12.3088 C.ar    1  UNL1        0.0201
     10 C          61.2236   85.2984    7.4294 C.ar    1  UNL1        0.1901
     11 N          62.6600   85.2208    7.8544 N.ar    1  UNL1       -0.2196
     12 C          63.1285   85.9843    9.0575 C.ar    1  UNL1        0.1026
     13 C          62.1607   86.8254    9.8357 C.ar    1  UNL1        0.0396
     14 C          60.7242   86.9031    9.4107 C.ar    1  UNL1        0.1026
     15 N          60.2557   86.1396    8.2076 N.ar    1  UNL1       -0.2196
     16 C          61.7408   84.1036    5.1811 C.3     1  UNL1        0.0772
     17 S          60.7551   84.5349    6.2262 S.3     1  UNL1       -0.0748
     18 C          62.2018   90.0734   10.1501 C.3     1  UNL1        0.1809
     19 O          60.7515   90.4402   10.0398 O.3     1  UNL1       -0.3760
     20 H          60.2431   89.6659    9.7520 H       1  UNL1        0.2110
     21 C          63.3843   90.7853   13.1072 C.3     1  UNL1        0.1333
     22 C          64.7685   91.3091   13.3507 C.ar    1  UNL1        0.0110
     23 C          65.4399   91.0690   14.6705 C.ar    1  UNL1       -0.0016
     24 C          66.8242   91.5928   14.9141 C.ar    1  UNL1       -0.0002
     25 C          67.5372   92.3567   13.8379 C.ar    1  UNL1        0.0008
     26 C          66.8659   92.5968   12.5182 C.ar    1  UNL1        0.0111
     27 C          65.4816   92.0730   12.2746 C.ar    1  UNL1        0.0555
     28 CL         64.8103   92.3131   10.9549 Cl      1  UNL1       -0.0825
     29 O          64.1468   83.8550   14.5286 O.3     1  UNL1       -0.4045
     30 C          62.9912   82.8992   14.5577 C.3     1  UNL1        0.5753
     31 F          61.8355   81.9433   14.5867 F       1  UNL1       -0.1328
     32 F          63.7762   81.9248   13.7306 F       1  UNL1       -0.1328
     33 F          62.2061   83.8736   15.3848 F       1  UNL1       -0.1328
@<TRIPOS>BOND
     1    16    17    1
     2    17    10    1
     3    10    11   ar
     4    11    12   ar
     5    12    13   ar
     6    13     1    1
     7     1     2   ar
     8     2    18    1
     9    18    19    1
    10     2     3   ar
    11     3    21    1
    12    21    22    1
    13    22    23   ar
    14    23    24   ar
    15    24    25   ar
    16    25    26   ar
    17    26    27   ar
    18    27    28    1
    19     3     4   ar
    20     4     5   ar
    21     5     6   ar
    22     6     7   ar
    23     7    29    1
    24    29    30    1
    25    30    31    1
    26    30    32    1
    27    30    33    1
    28     7     8   ar
    29     8     9   ar
    30    13    14   ar
    31    14    15   ar
    32    15    10   ar
    33     9     1   ar
    34    27    22   ar
    35     9     4   ar
    36    19    20    1
@<TRIPOS>MOLECULE
*****
 33 36 0 0 0
SMALL
GASTEIGER

@<TRIPOS>ATOM
      1 C          63.2701   89.1138   12.5024 C.ar    1  UNL1        0.0186
      2 C          62.4723   89.4693   11.2829 C.ar    1  UNL1        0.0671
      3 N          61.9300   88.1993   10.6974 N.ar    1  UNL1       -0.3243
      4 C          62.3926   87.0589   11.5549 C.ar    1  UNL1        0.0602
      5 C          62.1666   85.5788   11.4640 C.ar    1  UNL1        0.0203
      6 C          62.7689   84.6639   12.4888 C.ar    1  UNL1        0.0387
      7 C          63.5972   85.2291   13.6044 C.ar    1  UNL1        0.1469
      8 C          63.8231   86.7091   13.6953 C.ar    1  UNL1        0.0387
      9 C          63.2208   87.6240   12.6705 C.ar    1  UNL1        0.0201
     10 C          65.4319   92.0082   15.1856 C.ar    1  UNL1        0.1901
     11 N          64.3172   91.1671   15.7331 N.ar    1  UNL1       -0.2196
     12 C          63.5966   90.2023   14.8387 C.ar    1  UNL1        0.1026
     13 C          63.9907   90.0786   13.3968 C.ar    1  UNL1        0.0396
     14 C          65.1054   90.9198   12.8492 C.ar    1  UNL1        0.1026
     15 N          65.8260   91.8846   13.7436 N.ar    1  UNL1       -0.2196
     16 C          67.6520   93.0031   16.0972 C.3     1  UNL1        0.0772
     17 S          66.1525   92.9730   16.0800 S.3     1  UNL1       -0.0748
     18 C          62.2550   90.8521   10.7437 C.3     1  UNL1        0.1809
     19 O          63.1590   91.3910    9.6749 O.3     1  UNL1       -0.3760
     20 H          64.0551   91.4947   10.0314 H       1  UNL1        0.2110
     21 C          61.0751   88.0891    9.4697 C.3     1  UNL1        0.1333
     22 C          61.2360   86.9180    8.5464 C.ar    1  UNL1        0.0110
     23 C          62.5752   86.2589    8.3973 C.ar    1  UNL1       -0.0016
     24 C          62.7362   85.0878    7.4740 C.ar    1  UNL1       -0.0002
     25 C          61.5579   84.5758    6.6996 C.ar    1  UNL1        0.0008
     26 C          60.2188   85.2349    6.8487 C.ar    1  UNL1        0.0111
     27 C          60.0578   86.4060    7.7720 C.ar    1  UNL1        0.0555
     28 CL         58.7186   87.0650    7.9210 Cl      1  UNL1       -0.0825
     29 O          64.1995   84.3141   14.6292 O.3     1  UNL1       -0.4045
     30 C          63.8974   82.8453   14.5932 C.3     1  UNL1        0.5753
     31 F          63.5953   81.3764   14.5571 F       1  UNL1       -0.1328
     32 F          62.8824   83.0273   15.6825 F       1  UNL1       -0.1328
     33 F          64.9124   82.6633   13.5038 F       1  UNL1       -0.1328
@<TRIPOS>BOND
     1    16    17    1
     2    17    10    1
     3    10    11   ar
     4    11    12   ar
     5    12    13   ar
     6    13     1    1
     7     1     2   ar
     8     2    18    1
     9    18    19    1
    10     2     3   ar
    11     3    21    1
    12    21    22    1
    13    22    23   ar
    14    23    24   ar
    15    24    25   ar
    16    25    26   ar
    17    26    27   ar
    18    27    28    1
    19     3     4   ar
    20     4     5   ar
    21     5     6   ar
    22     6     7   ar
    23     7    29    1
    24    29    30    1
    25    30    31    1
    26    30    32    1
    27    30    33    1
    28     7     8   ar
    29     8     9   ar
    30    13    14   ar
    31    14    15   ar
    32    15    10   ar
    33     9     1   ar
    34    27    22   ar
    35     9     4   ar
    36    19    20    1
@<TRIPOS>MOLECULE
*****
 33 36 0 0 0
SMALL
GASTEIGER

@<TRIPOS>ATOM
      1 C          62.4319   86.9772   11.4008 C.ar    1  UNL1        0.0186
      2 C          62.8169   85.5383   11.5773 C.ar    1  UNL1        0.0671
      3 N          63.6648   85.4332   12.8102 N.ar    1  UNL1       -0.3243
      4 C          63.8038   86.8072   13.3957 C.ar    1  UNL1        0.0602
      5 C          64.5257   87.3127   14.6094 C.ar    1  UNL1        0.0203
      6 C          64.4857   88.7725   14.9521 C.ar    1  UNL1        0.0387
      7 C          63.7238   89.7268   14.0810 C.ar    1  UNL1        0.1469
      8 C          63.0018   89.2213   12.8672 C.ar    1  UNL1        0.0387
      9 C          63.0418   87.7615   12.5246 C.ar    1  UNL1        0.0201
     10 C          59.8929   88.6482    8.0824 C.ar    1  UNL1        0.1901
     11 N          59.8693   87.1776    8.3771 N.ar    1  UNL1       -0.2196
     12 C          60.7156   86.6207    9.4832 C.ar    1  UNL1        0.1026
     13 C          61.5856   87.5342   10.2946 C.ar    1  UNL1        0.0396
     14 C          61.6093   89.0048    9.9999 C.ar    1  UNL1        0.1026
     15 N          60.7629   89.5618    8.8938 N.ar    1  UNL1       -0.2196
     16 C          59.6581   90.1071    5.9455 C.3     1  UNL1        0.0772
     17 S          59.0466   89.2051    6.9762 S.3     1  UNL1       -0.0748
     18 C          62.4232   84.4036   10.6787 C.3     1  UNL1        0.1809
     19 O          63.3872   83.8928    9.6494 O.3     1  UNL1       -0.3760
     20 H          63.5436   84.5805    8.9834 H       1  UNL1        0.2110
     21 C          64.2678   84.1750   13.3610 C.3     1  UNL1        0.1333
     22 C          63.4560   82.9149   13.4139 C.ar    1  UNL1        0.0110
     23 C          63.7628   81.7851   12.4761 C.ar    1  UNL1       -0.0016
     24 C          62.9510   80.5249   12.5289 C.ar    1  UNL1       -0.0002
     25 C          61.8322   80.3945   13.5196 C.ar    1  UNL1        0.0008
     26 C          61.5254   81.5242   14.4574 C.ar    1  UNL1        0.0111
     27 C          62.3372   82.7844   14.4046 C.ar    1  UNL1        0.0555
     28 CL         62.0303   83.9141   15.3424 Cl      1  UNL1       -0.0825
     29 O          63.6838   91.1866   14.4237 O.3     1  UNL1       -0.4045
     30 C          64.7199   91.7712   15.3372 C.3     1  UNL1        0.5753
     31 F          65.7561   92.3558   16.2509 F       1  UNL1       -0.1328
     32 F          63.7751   91.6371   16.4945 F       1  UNL1       -0.1328
     33 F          65.6647   91.9053   14.1799 F       1  UNL1       -0.1328
@<TRIPOS>BOND
     1    16    17    1
     2    17    10    1
     3    10    11   ar
     4    11    12   ar
     5    12    13   ar
     6    13     1    1
     7     1     2   ar
     8     2    18    1
     9    18    19    1
    10     2     3   ar
    11     3    21    1
    12    21    22    1
    13    22    23   ar
    14    23    24   ar
    15    24    25   ar
    16    25    26   ar
    17    26    27   ar
    18    27    28    1
    19     3     4   ar
    20     4     5   ar
    21     5     6   ar
    22     6     7   ar
    23     7    29    1
    24    29    30    1
    25    30    31    1
    26    30    32    1
    27    30    33    1
    28     7     8   ar
    29     8     9   ar
    30    13    14   ar
    31    14    15   ar
    32    15    10   ar
    33     9     1   ar
    34    27    22   ar
    35     9     4   ar
    36    19    20    1
@<TRIPOS>MOLECULE
*****
 33 36 0 0 0
SMALL
GASTEIGER

@<TRIPOS>ATOM
      1 C          63.1867   90.3604   12.0424 C.ar    1  UNL1        0.0186
      2 C          64.0700   91.4591   11.5298 C.ar    1  UNL1        0.0671
      3 N          64.8312   92.0226   12.6930 N.ar    1  UNL1       -0.3243
      4 C          64.4183   91.2723   13.9245 C.ar    1  UNL1        0.0602
      5 C          64.8365   91.3918   15.3600 C.ar    1  UNL1        0.0203
      6 C          64.2384   90.4840   16.3935 C.ar    1  UNL1        0.0387
      7 C          63.2221   89.4566   15.9914 C.ar    1  UNL1        0.1469
      8 C          62.8039   89.3371   14.5559 C.ar    1  UNL1        0.0387
      9 C          63.4020   90.2450   13.5224 C.ar    1  UNL1        0.0201
     10 C          60.3832   87.8512    9.5738 C.ar    1  UNL1        0.1901
     11 N          61.6454   87.2507   10.1179 N.ar    1  UNL1       -0.2196
     12 C          62.5799   88.0871   10.9408 C.ar    1  UNL1        0.1026
     13 C          62.2523   89.5240   11.2195 C.ar    1  UNL1        0.0396
     14 C          60.9900   90.1246   10.6754 C.ar    1  UNL1        0.1026
     15 N          60.0555   89.2882    9.8525 N.ar    1  UNL1       -0.2196
     16 C          59.9940   86.0974    7.6969 C.3     1  UNL1        0.0772
     17 S          59.4487   87.0148    8.7509 S.3     1  UNL1       -0.0748
     18 C          64.1739   91.9142   10.1043 C.3     1  UNL1        0.1809
     19 O          62.9840   91.8144    9.1965 O.3     1  UNL1       -0.3760
     20 H          62.7641   90.8806    9.0531 H       1  UNL1        0.2110
     21 C          65.8299   93.1403   12.6349 C.3     1  UNL1        0.1333
     22 C          66.6903   93.3149   11.4188 C.ar    1  UNL1        0.0110
     23 C          67.5398   92.1786   10.9316 C.ar    1  UNL1       -0.0016
     24 C          68.4003   92.3531    9.7155 C.ar    1  UNL1       -0.0002
     25 C          68.4113   93.6640    8.9864 C.ar    1  UNL1        0.0008
     26 C          67.5620   94.8003    9.4736 C.ar    1  UNL1        0.0111
     27 C          66.7014   94.6258   10.6897 C.ar    1  UNL1        0.0555
     28 CL         65.8521   95.7621   11.1768 Cl      1  UNL1       -0.0825
     29 O          62.6240   88.5488   17.0249 O.3     1  UNL1       -0.4045
     30 C          63.1220   87.1408   17.1649 C.3     1  UNL1        0.5753
     31 F          63.6199   85.7328   17.3049 F       1  UNL1       -0.1328
     32 F          62.4284   87.0273   18.4900 F       1  UNL1       -0.1328
     33 F          63.8155   87.2544   15.8398 F       1  UNL1       -0.1328
@<TRIPOS>BOND
     1    16    17    1
     2    17    10    1
     3    10    11   ar
     4    11    12   ar
     5    12    13   ar
     6    13     1    1
     7     1     2   ar
     8     2    18    1
     9    18    19    1
    10     2     3   ar
    11     3    21    1
    12    21    22    1
    13    22    23   ar
    14    23    24   ar
    15    24    25   ar
    16    25    26   ar
    17    26    27   ar
    18    27    28    1
    19     3     4   ar
    20     4     5   ar
    21     5     6   ar
    22     6     7   ar
    23     7    29    1
    24    29    30    1
    25    30    31    1
    26    30    32    1
    27    30    33    1
    28     7     8   ar
    29     8     9   ar
    30    13    14   ar
    31    14    15   ar
    32    15    10   ar
    33     9     1   ar
    34    27    22   ar
    35     9     4   ar
    36    19    20    1
@<TRIPOS>MOLECULE
*****
 33 36 0 0 0
SMALL
GASTEIGER

@<TRIPOS>ATOM
      1 C          62.7838   88.0981   12.2125 C.ar    1  UNL1        0.0186
      2 C          63.1979   89.3660   12.8987 C.ar    1  UNL1        0.0671
      3 N          64.0766   89.0000   14.0580 N.ar    1  UNL1       -0.3243
      4 C          64.2056   87.5058   14.0882 C.ar    1  UNL1        0.0602
      5 C          64.9473   86.5809   15.0070 C.ar    1  UNL1        0.0203
      6 C          64.8901   85.0985   14.7852 C.ar    1  UNL1        0.0387
      7 C          64.0911   84.5411   13.6446 C.ar    1  UNL1        0.1469
      8 C          63.3494   85.4660   12.7258 C.ar    1  UNL1        0.0387
      9 C          63.4066   86.9484   12.9476 C.ar    1  UNL1        0.0201
     10 C          60.1379   87.7961    8.5850 C.ar    1  UNL1        0.1901
     11 N          59.7312   88.6624    9.7400 N.ar    1  UNL1       -0.2196
     12 C          60.6132   88.7631   10.9491 C.ar    1  UNL1        0.1026
     13 C          61.9019   87.9974   11.0034 C.ar    1  UNL1        0.0396
     14 C          62.3086   87.1310    9.8483 C.ar    1  UNL1        0.1026
     15 N          61.4266   87.0304    8.6392 N.ar    1  UNL1       -0.2196
     16 C          58.9034   88.9297    6.5999 C.3     1  UNL1        0.0772
     17 S          59.2559   87.6954    7.3759 S.3     1  UNL1       -0.0748
     18 C          62.8027   90.7559   12.4963 C.3     1  UNL1        0.1809
     19 O          63.1231   91.2578   11.1195 O.3     1  UNL1       -0.3760
     20 H          64.0851   91.3263   11.0161 H       1  UNL1        0.2110
     21 C          64.7143   89.9596   15.0184 C.3     1  UNL1        0.1333
     22 C          65.4698   91.1476   14.5011 C.ar    1  UNL1        0.0110
     23 C          65.9967   91.1480   13.0966 C.ar    1  UNL1       -0.0016
     24 C          66.7522   92.3361   12.5792 C.ar    1  UNL1       -0.0002
     25 C          66.9809   93.5238   13.4664 C.ar    1  UNL1        0.0008
     26 C          66.4541   93.5234   14.8708 C.ar    1  UNL1        0.0111
     27 C          65.6986   92.3354   15.3882 C.ar    1  UNL1        0.0555
     28 CL         65.1717   92.3351   16.7926 Cl      1  UNL1       -0.0825
     29 O          64.0339   83.0586   13.4229 O.3     1  UNL1       -0.4045
     30 C          62.7101   82.3790   13.2345 C.3     1  UNL1        0.5753
     31 F          61.3862   81.6993   13.0462 F       1  UNL1       -0.1328
     32 F          63.1481   81.9005   11.8821 F       1  UNL1       -0.1328
     33 F          62.2720   82.8575   14.5870 F       1  UNL1       -0.1328
@<TRIPOS>BOND
     1    16    17    1
     2    17    10    1
     3    10    11   ar
     4    11    12   ar
     5    12    13   ar
     6    13     1    1
     7     1     2   ar
     8     2    18    1
     9    18    19    1
    10     2     3   ar
    11     3    21    1
    12    21    22    1
    13    22    23   ar
    14    23    24   ar
    15    24    25   ar
    16    25    26   ar
    17    26    27   ar
    18    27    28    1
    19     3     4   ar
    20     4     5   ar
    21     5     6   ar
    22     6     7   ar
    23     7    29    1
    24    29    30    1
    25    30    31    1
    26    30    32    1
    27    30    33    1
    28     7     8   ar
    29     8     9   ar
    30    13    14   ar
    31    14    15   ar
    32    15    10   ar
    33     9     1   ar
    34    27    22   ar
    35     9     4   ar
    36    19    20    1
@<TRIPOS>MOLECULE
*****
 33 36 0 0 0
SMALL
GASTEIGER

@<TRIPOS>ATOM
      1 C          62.0435   93.6813   -2.1761 C.ar    1  UNL1        0.0186
      2 C          62.6910   93.9731   -0.8549 C.ar    1  UNL1        0.0671
      3 N          61.6231   93.9562    0.1983 N.ar    1  UNL1       -0.3243
      4 C          60.3157   93.6539   -0.4719 C.ar    1  UNL1        0.0602
      5 C          58.9221   93.5115    0.0645 C.ar    1  UNL1        0.0203
      6 C          57.7884   93.1991   -0.8667 C.ar    1  UNL1        0.0387
      7 C          58.0482   93.0292   -2.3342 C.ar    1  UNL1        0.1469
      8 C          59.4418   93.1717   -2.8706 C.ar    1  UNL1        0.0387
      9 C          60.5755   93.4840   -1.9394 C.ar    1  UNL1        0.0201
     10 C          64.1374   93.4400   -6.1520 C.ar    1  UNL1        0.1901
     11 N          64.4115   92.4104   -5.0963 N.ar    1  UNL1       -0.2196
     12 C          63.7135   92.4908   -3.7710 C.ar    1  UNL1        0.1026
     13 C          62.7415   93.6009   -3.5014 C.ar    1  UNL1        0.0396
     14 C          62.4673   94.6306   -4.5572 C.ar    1  UNL1        0.1026
     15 N          63.1653   94.5502   -5.8825 N.ar    1  UNL1       -0.2196
     16 C          66.3153   93.5895   -7.5608 C.3     1  UNL1        0.0772
     17 S          64.8353   93.3596   -7.4773 S.3     1  UNL1       -0.0748
     18 C          64.1501   94.2357   -0.6270 C.3     1  UNL1        0.1809
     19 O          65.0396   93.1387   -0.1218 O.3     1  UNL1       -0.3760
     20 H          64.7754   92.8974    0.7798 H       1  UNL1        0.2110
     21 C          61.8269   94.1989    1.6645 C.3     1  UNL1        0.1333
     22 C          61.3393   93.1943    2.6659 C.ar    1  UNL1        0.0110
     23 C          59.9612   93.3205    3.2449 C.ar    1  UNL1       -0.0016
     24 C          59.4736   92.3159    4.2464 C.ar    1  UNL1       -0.0002
     25 C          60.3640   91.1851    4.6689 C.ar    1  UNL1        0.0008
     26 C          61.7420   91.0590    4.0900 C.ar    1  UNL1        0.0111
     27 C          62.2296   92.0635    3.0885 C.ar    1  UNL1        0.0555
     28 CL         63.6077   91.9373    2.5097 Cl      1  UNL1       -0.0825
     29 O          56.9144   92.7169   -3.2654 O.3     1  UNL1       -0.4045
     30 C          56.2737   91.3609   -3.2385 C.3     1  UNL1        0.5753
     31 F          55.6328   90.0049   -3.2116 F       1  UNL1       -0.1328
     32 F          55.2785   91.8512   -2.2289 F       1  UNL1       -0.1328
     33 F          57.2688   90.8706   -4.2481 F       1  UNL1       -0.1328
@<TRIPOS>BOND
     1    16    17    1
     2    17    10    1
     3    10    11   ar
     4    11    12   ar
     5    12    13   ar
     6    13     1    1
     7     1     2   ar
     8     2    18    1
     9    18    19    1
    10     2     3   ar
    11     3    21    1
    12    21    22    1
    13    22    23   ar
    14    23    24   ar
    15    24    25   ar
    16    25    26   ar
    17    26    27   ar
    18    27    28    1
    19     3     4   ar
    20     4     5   ar
    21     5     6   ar
    22     6     7   ar
    23     7    29    1
    24    29    30    1
    25    30    31    1
    26    30    32    1
    27    30    33    1
    28     7     8   ar
    29     8     9   ar
    30    13    14   ar
    31    14    15   ar
    32    15    10   ar
    33     9     1   ar
    34    27    22   ar
    35     9     4   ar
    36    19    20    1
@<TRIPOS>MOLECULE
*****
 33 36 0 0 0
SMALL
GASTEIGER

@<TRIPOS>ATOM
      1 C          59.6114   93.5317   -2.6423 C.ar    1  UNL1        0.0186
      2 C          59.3235   93.7056   -1.1805 C.ar    1  UNL1        0.0671
      3 N          60.6195   93.9992   -0.4847 N.ar    1  UNL1       -0.3243
      4 C          61.7083   94.0067   -1.5164 C.ar    1  UNL1        0.0602
      5 C          63.1866   94.2393   -1.4139 C.ar    1  UNL1        0.0203
      6 C          64.0418   94.1829   -2.6449 C.ar    1  UNL1        0.0387
      7 C          63.4187   93.8940   -3.9784 C.ar    1  UNL1        0.1469
      8 C          61.9405   93.6614   -4.0809 C.ar    1  UNL1        0.0387
      9 C          61.0853   93.7177   -2.8499 C.ar    1  UNL1        0.0201
     10 C          56.5847   92.6128   -5.8431 C.ar    1  UNL1        0.1901
     11 N          57.3056   93.9282   -5.8480 N.ar    1  UNL1       -0.2196
     12 C          58.3145   94.2344   -4.7811 C.ar    1  UNL1        0.1026
     13 C          58.6025   93.2254   -3.7093 C.ar    1  UNL1        0.0396
     14 C          57.8816   91.9100   -3.7044 C.ar    1  UNL1        0.1026
     15 N          56.8727   91.6037   -4.7713 N.ar    1  UNL1       -0.2196
     16 C          55.2312   90.8821   -7.2297 C.3     1  UNL1        0.0772
     17 S          55.5758   92.3065   -6.9101 S.3     1  UNL1       -0.0748
     18 C          57.9763   93.6039   -0.5290 C.3     1  UNL1        0.1809
     19 O          57.3620   92.2578   -0.2827 O.3     1  UNL1       -0.3760
     20 H          57.1643   91.8324   -1.1317 H       1  UNL1        0.2110
     21 C          60.7958   94.2426    0.9849 C.3     1  UNL1        0.1333
     22 C          61.5362   93.2462    1.8267 C.ar    1  UNL1        0.0110
     23 C          62.9935   92.9907    1.5789 C.ar    1  UNL1       -0.0016
     24 C          63.7340   91.9942    2.4207 C.ar    1  UNL1       -0.0002
     25 C          63.0173   91.2531    3.5103 C.ar    1  UNL1        0.0008
     26 C          61.5602   91.5086    3.7581 C.ar    1  UNL1        0.0111
     27 C          60.8196   92.5051    2.9163 C.ar    1  UNL1        0.0555
     28 CL         59.3625   92.7605    3.1641 Cl      1  UNL1       -0.0825
     29 O          64.2740   93.8376   -5.2094 O.3     1  UNL1       -0.4045
     30 C          64.5985   92.5146   -5.8373 C.3     1  UNL1        0.5753
     31 F          64.9231   91.1915   -6.4652 F       1  UNL1       -0.1328
     32 F          65.6266   92.2624   -4.7746 F       1  UNL1       -0.1328
     33 F          63.5705   92.7668   -6.9000 F       1  UNL1       -0.1328
@<TRIPOS>BOND
     1    16    17    1
     2    17    10    1
     3    10    11   ar
     4    11    12   ar
     5    12    13   ar
     6    13     1    1
     7     1     2   ar
     8     2    18    1
     9    18    19    1
    10     2     3   ar
    11     3    21    1
    12    21    22    1
    13    22    23   ar
    14    23    24   ar
    15    24    25   ar
    16    25    26   ar
    17    26    27   ar
    18    27    28    1
    19     3     4   ar
    20     4     5   ar
    21     5     6   ar
    22     6     7   ar
    23     7    29    1
    24    29    30    1
    25    30    31    1
    26    30    32    1
    27    30    33    1
    28     7     8   ar
    29     8     9   ar
    30    13    14   ar
    31    14    15   ar
    32    15    10   ar
    33     9     1   ar
    34    27    22   ar
    35     9     4   ar
    36    19    20    1
@<TRIPOS>MOLECULE
*****
 33 36 0 0 0
SMALL
GASTEIGER

@<TRIPOS>ATOM
      1 C          61.5916   93.7844   -0.7720 C.ar    1  UNL1        0.0186
      2 C          62.9876   94.2244   -1.0996 C.ar    1  UNL1        0.0671
      3 N          63.0390   94.5518   -2.5626 N.ar    1  UNL1       -0.3243
      4 C          61.6748   94.3141   -3.1390 C.ar    1  UNL1        0.0602
      5 C          61.1315   94.4683   -4.5286 C.ar    1  UNL1        0.0203
      6 C          59.6937   94.1482   -4.8116 C.ar    1  UNL1        0.0387
      7 C          58.7991   93.6739   -3.7049 C.ar    1  UNL1        0.1469
      8 C          59.3423   93.5197   -2.3153 C.ar    1  UNL1        0.0387
      9 C          60.7802   93.8398   -2.0324 C.ar    1  UNL1        0.0201
     10 C          60.0993   92.5200    3.2808 C.ar    1  UNL1        0.1901
     11 N          61.5275   92.2705    2.8960 N.ar    1  UNL1       -0.2196
     12 C          62.0248   92.6920    1.5451 C.ar    1  UNL1        0.1026
     13 C          61.0942   93.3629    0.5790 C.ar    1  UNL1        0.0396
     14 C          59.6659   93.6124    0.9637 C.ar    1  UNL1        0.1026
     15 N          59.1685   93.1909    2.3146 N.ar    1  UNL1       -0.2196
     16 C          58.1635   91.7146    4.8151 C.3     1  UNL1        0.0772
     17 S          59.6019   92.0985    4.6317 S.3     1  UNL1       -0.0748
     18 C          64.1314   94.3202   -0.1340 C.3     1  UNL1        0.1809
     19 O          65.1495   93.2208   -0.0658 O.3     1  UNL1       -0.3760
     20 H          64.7287   92.4102    0.2609 H       1  UNL1        0.2110
     21 C          64.2433   95.0324   -3.3167 C.3     1  UNL1        0.1333
     22 C          64.7081   94.2942   -4.5369 C.ar    1  UNL1        0.0110
     23 C          64.5289   92.8077   -4.6278 C.ar    1  UNL1       -0.0016
     24 C          64.9937   92.0694   -5.8480 C.ar    1  UNL1       -0.0002
     25 C          65.6377   92.8177   -6.9773 C.ar    1  UNL1        0.0008
     26 C          65.8169   94.3041   -6.8864 C.ar    1  UNL1        0.0111
     27 C          65.3521   95.0424   -5.6662 C.ar    1  UNL1        0.0555
     28 CL         65.5314   96.5289   -5.5754 Cl      1  UNL1       -0.0825
     29 O          57.3612   93.3538   -3.9879 O.3     1  UNL1       -0.4045
     30 C          56.7045   92.1887   -3.3088 C.3     1  UNL1        0.5753
     31 F          56.0477   91.0236   -2.6295 F       1  UNL1       -0.1328
     32 F          55.8067   93.1300   -2.5619 F       1  UNL1       -0.1328
     33 F          57.6022   91.2473   -4.0556 F       1  UNL1       -0.1328
@<TRIPOS>BOND
     1    16    17    1
     2    17    10    1
     3    10    11   ar
     4    11    12   ar
     5    12    13   ar
     6    13     1    1
     7     1     2   ar
     8     2    18    1
     9    18    19    1
    10     2     3   ar
    11     3    21    1
    12    21    22    1
    13    22    23   ar
    14    23    24   ar
    15    24    25   ar
    16    25    26   ar
    17    26    27   ar
    18    27    28    1
    19     3     4   ar
    20     4     5   ar
    21     5     6   ar
    22     6     7   ar
    23     7    29    1
    24    29    30    1
    25    30    31    1
    26    30    32    1
    27    30    33    1
    28     7     8   ar
    29     8     9   ar
    30    13    14   ar
    31    14    15   ar
    32    15    10   ar
    33     9     1   ar
    34    27    22   ar
    35     9     4   ar
    36    19    20    1
