@<TRIPOS>MOLECULE
*****
 47 51 0 0 0
SMALL
GASTEIGER

@<TRIPOS>ATOM
      1 C          60.6609   91.9318    3.5777 C.ar    1  UNL1        0.0528
      2 C          59.4132   92.7601    3.6614 C.ar    1  UNL1        0.0148
      3 C          58.8375   93.3764    2.4209 C.ar    1  UNL1        0.0027
      4 C          59.5096   93.1643    1.0968 C.ar    1  UNL1        0.0180
      5 C          60.7573   92.3360    1.0131 C.ar    1  UNL1        0.0519
      6 C          61.3329   91.7197    2.2535 C.ar    1  UNL1        0.0294
      7 N          61.1957   92.3020   -0.4210 N.am    1  UNL1       -0.2803
      8 C          60.2189   93.1093   -1.2236 C.2     1  UNL1        0.2496
      9 O          60.2746   93.3426   -2.7044 O.2     1  UNL1       -0.2698
     10 C          59.1768   93.6423   -0.2856 C.2     1  UNL1        0.0560
     11 C          58.0074   94.5022   -0.6636 C.2     1  UNL1        0.0196
     12 H          61.9858   91.8322   -0.7736 H       1  UNL1        0.1552
     13 C          60.1404   88.8541    7.7319 C.2     1  UNL1        0.2548
     14 O          58.7286   88.5478    7.3281 O.2     1  UNL1       -0.2696
     15 N          60.9764   89.7767    6.8953 N.am    1  UNL1       -0.2358
     16 C          60.4006   90.3930    5.6548 C.2     1  UNL1        0.3104
     17 O          58.9889   90.0867    5.2510 O.2     1  UNL1       -0.2521
     18 N          61.2367   91.3155    4.8182 N.am    1  UNL1       -0.2680
     19 H          61.9030   89.9777    7.1603 H       1  UNL1        0.1594
     20 H          62.1633   91.5165    5.0832 H       1  UNL1        0.1564
     21 C          61.8677   87.0054   11.4532 C.ar    1  UNL1        0.1410
     22 C          62.0798   88.4635   11.1722 C.ar    1  UNL1        0.0372
     23 C          61.5041   89.0797    9.9318 C.ar    1  UNL1        0.0099
     24 C          60.7161   88.2379    8.9723 C.ar    1  UNL1        0.0814
     25 C          60.5040   86.7798    9.2533 C.ar    1  UNL1        0.1475
     26 F          59.7161   85.9379    8.2939 F       1  UNL1       -0.2039
     27 C          61.0798   86.1635   10.4938 C.ar    1  UNL1        0.0666
     28 C          63.1805   85.0853   12.6108 C.3     1  UNL1        0.2525
     29 O          62.4434   86.3891   12.6937 O.3     1  UNL1       -0.4714
     30 C          57.8023   94.9027   -2.0945 C.2     1  UNL1        0.0626
     31 N          58.6331   95.8881   -2.8620 N.2     1  UNL1       -0.2538
     32 C          58.0748   95.9825   -4.2510 C.2     1  UNL1        0.0597
     33 C          58.6000   96.8513   -5.3551 C.3     1  UNL1        0.0519
     34 C          56.8990   95.0556   -4.3420 C.2     1  UNL1        0.0499
     35 C          56.7306   94.3882   -3.0092 C.3     1  UNL1        0.0681
     36 C          55.6757   93.3829   -2.6535 C.3     1  UNL1        0.0112
     37 C          56.0420   94.8347   -5.5531 C.2     1  UNL1        0.2434
     38 O          56.0782   93.5160   -6.2671 O.2     1  UNL1       -0.2704
     39 N          55.1487   95.9324   -6.0501 N.am    1  UNL1       -0.2997
     40 H          55.1249   96.7979   -5.5815 H       1  UNL1        0.1498
     41 C          54.2917   95.7115   -7.2612 C.3     1  UNL1        0.1070
     42 C          53.0714   96.5557   -7.4806 C.3     1  UNL1        0.0936
     43 N          51.8210   96.2842   -6.6980 N.3     1  UNL1       -0.2712
     44 C          50.4948   95.8768   -7.2685 C.3     1  UNL1        0.0722
     45 C          49.5312   95.7133   -6.1306 C.3     1  UNL1        0.0188
     46 C          50.2619   96.0197   -4.8568 C.3     1  UNL1        0.0188
     47 C          51.6770   96.3726   -5.2075 C.3     1  UNL1        0.0722
@<TRIPOS>BOND
     1    28    29    1
     2    29    21    1
     3    21    22   ar
     4    22    23   ar
     5    23    24   ar
     6    24    13    1
     7    13    14    2
     8    13    15   am
     9    15    16   am
    10    16    17    2
    11    16    18   am
    12    18     1    1
    13     1     2   ar
    14     2     3   ar
    15     3     4   ar
    16     4     5   ar
    17     5     6   ar
    18     5     7    1
    19     7     8   am
    20     8     9    2
    21     8    10    1
    22    10    11    2
    23    11    30    1
    24    30    31    2
    25    31    32    1
    26    32    33    1
    27    32    34    2
    28    34    37    1
    29    37    38    2
    30    37    39   am
    31    39    41    1
    32    41    42    1
    33    42    43    1
    34    43    44    1
    35    44    45    1
    36    45    46    1
    37    46    47    1
    38    34    35    1
    39    35    36    1
    40    24    25   ar
    41    25    26    1
    42    25    27   ar
    43    27    21   ar
    44     6     1   ar
    45    35    30    1
    46    10     4    1
    47    47    43    1
    48    15    19    1
    49    18    20    1
    50     7    12    1
    51    39    40    1
@<TRIPOS>MOLECULE
*****
 47 51 0 0 0
SMALL
GASTEIGER

@<TRIPOS>ATOM
      1 C          59.6222   89.6664    6.5695 C.ar    1  UNL1        0.0528
      2 C          59.3554   88.2027    6.3790 C.ar    1  UNL1        0.0148
      3 C          59.9196   87.2054    7.3469 C.ar    1  UNL1        0.0027
      4 C          60.7507   87.6718    8.5053 C.ar    1  UNL1        0.0180
      5 C          61.0175   89.1355    8.6958 C.ar    1  UNL1        0.0519
      6 C          60.4533   90.1328    7.7279 C.ar    1  UNL1        0.0294
      7 N          61.8662   89.2962    9.9221 N.am    1  UNL1       -0.2803
      8 C          62.1238   87.9318   10.4896 C.2     1  UNL1        0.2496
      9 O          62.9295   87.6252   11.7173 O.2     1  UNL1       -0.2698
     10 C          61.4344   86.9278    9.6140 C.2     1  UNL1        0.0560
     11 C          61.4296   85.4410    9.8122 C.2     1  UNL1        0.0196
     12 H          62.1961   90.1477   10.2900 H       1  UNL1        0.1552
     13 C          60.2537   92.8649    2.5233 C.2     1  UNL1        0.2548
     14 O          61.6979   92.4694    2.4360 O.2     1  UNL1       -0.2696
     15 N          59.3737   92.2631    3.5785 N.am    1  UNL1       -0.2358
     16 C          59.9379   91.2657    4.5464 C.2     1  UNL1        0.3104
     17 O          61.3822   90.8701    4.4591 O.2     1  UNL1       -0.2521
     18 N          59.0579   90.6639    5.6016 N.am    1  UNL1       -0.2680
     19 H          58.4257   92.5228    3.6358 H       1  UNL1        0.1594
     20 H          58.1100   90.9235    5.6588 H       1  UNL1        0.1564
     21 C          58.5608   95.8572   -0.3803 C.ar    1  UNL1        0.1410
     22 C          59.4114   96.3215    0.7647 C.ar    1  UNL1        0.0372
     23 C          59.9757   95.3241    1.7326 C.ar    1  UNL1        0.0099
     24 C          59.6894   93.8623    1.5555 C.ar    1  UNL1        0.0814
     25 C          58.8388   93.3980    0.4105 C.ar    1  UNL1        0.1475
     26 F          58.5525   91.9363    0.2334 F       1  UNL1       -0.2039
     27 C          58.2745   94.3954   -0.5574 C.ar    1  UNL1        0.0666
     28 C          58.1634   96.6447   -2.8240 C.3     1  UNL1        0.2525
     29 O          57.9965   96.8545   -1.3481 O.3     1  UNL1       -0.4714
     30 C          62.1621   84.8367   10.9734 C.2     1  UNL1        0.0626
     31 N          63.1342   83.6963   10.9056 N.2     1  UNL1       -0.2538
     32 C          63.6240   83.4215   12.2965 C.2     1  UNL1        0.0597
     33 C          64.6100   82.3622   12.6908 C.3     1  UNL1        0.0519
     34 C          62.9547   84.3922   13.2239 C.2     1  UNL1        0.0499
     35 C          62.0513   85.2668   12.4061 C.3     1  UNL1        0.0681
     36 C          61.1883   86.3767   12.9292 C.3     1  UNL1        0.0112
     37 C          63.1539   84.4739   14.7083 C.2     1  UNL1        0.2434
     38 O          64.2602   83.6987   15.3603 O.2     1  UNL1       -0.2704
     39 N          62.2469   85.3309   15.5408 N.am    1  UNL1       -0.2997
     40 H          61.5208   85.8397   15.1128 H       1  UNL1        0.1498
     41 C          62.4462   85.4126   17.0252 C.3     1  UNL1        0.1070
     42 C          62.8417   86.7136   17.6583 C.3     1  UNL1        0.0936
     43 N          63.2472   87.8736   16.7982 N.3     1  UNL1       -0.2712
     44 C          62.9835   89.3214   17.0891 C.3     1  UNL1        0.0722
     45 C          63.5609   90.1322   15.9669 C.3     1  UNL1        0.0188
     46 C          64.1814   89.1856   14.9825 C.3     1  UNL1        0.0188
     47 C          63.9875   87.7897   15.4964 C.3     1  UNL1        0.0722
@<TRIPOS>BOND
     1    28    29    1
     2    29    21    1
     3    21    22   ar
     4    22    23   ar
     5    23    24   ar
     6    24    13    1
     7    13    14    2
     8    13    15   am
     9    15    16   am
    10    16    17    2
    11    16    18   am
    12    18     1    1
    13     1     2   ar
    14     2     3   ar
    15     3     4   ar
    16     4     5   ar
    17     5     6   ar
    18     5     7    1
    19     7     8   am
    20     8     9    2
    21     8    10    1
    22    10    11    2
    23    11    30    1
    24    30    31    2
    25    31    32    1
    26    32    33    1
    27    32    34    2
    28    34    37    1
    29    37    38    2
    30    37    39   am
    31    39    41    1
    32    41    42    1
    33    42    43    1
    34    43    44    1
    35    44    45    1
    36    45    46    1
    37    46    47    1
    38    34    35    1
    39    35    36    1
    40    24    25   ar
    41    25    26    1
    42    25    27   ar
    43    27    21   ar
    44     6     1   ar
    45    35    30    1
    46    10     4    1
    47    47    43    1
    48    15    19    1
    49    18    20    1
    50     7    12    1
    51    39    40    1
@<TRIPOS>MOLECULE
*****
 47 51 0 0 0
SMALL
GASTEIGER

@<TRIPOS>ATOM
      1 C          60.5766   91.8008    3.9435 C.ar    1  UNL1        0.0528
      2 C          59.1646   92.3046    3.9921 C.ar    1  UNL1        0.0148
      3 C          58.5199   92.8501    2.7526 C.ar    1  UNL1        0.0027
      4 C          59.2871   92.8918    1.4643 C.ar    1  UNL1        0.0180
      5 C          60.6991   92.3880    1.4156 C.ar    1  UNL1        0.0519
      6 C          61.3439   91.8425    2.6552 C.ar    1  UNL1        0.0294
      7 N          61.2026   92.5548    0.0126 N.am    1  UNL1       -0.2803
      8 C          60.1018   93.1617   -0.8060 C.2     1  UNL1        0.2496
      9 O          60.1725   93.5007   -2.2655 O.2     1  UNL1       -0.2698
     10 C          58.9179   93.3700    0.0912 C.2     1  UNL1        0.0560
     11 C          57.5969   93.9539   -0.3135 C.2     1  UNL1        0.0196
     12 H          62.0984   92.3091   -0.3138 H       1  UNL1        0.1552
     13 C          60.3879   88.7463    8.1429 C.2     1  UNL1        0.2548
     14 O          59.0038   88.3101    7.7633 O.2     1  UNL1       -0.2696
     15 N          61.1271   89.7280    7.2828 N.am    1  UNL1       -0.2358
     16 C          60.4822   90.2735    6.0432 C.2     1  UNL1        0.3104
     17 O          59.0982   89.8373    5.6636 O.2     1  UNL1       -0.2521
     18 N          61.2215   91.2553    5.1831 N.am    1  UNL1       -0.2680
     19 H          62.0355   90.0143    7.5319 H       1  UNL1        0.1594
     20 H          62.1299   91.5416    5.4322 H       1  UNL1        0.1564
     21 C          62.3225   87.1098   11.8616 C.ar    1  UNL1        0.1410
     22 C          62.5179   88.5487   11.4856 C.ar    1  UNL1        0.0372
     23 C          61.8731   89.0942   10.2460 C.ar    1  UNL1        0.0099
     24 C          61.0327   88.2008    9.3824 C.ar    1  UNL1        0.0814
     25 C          60.8372   86.7619    9.7585 C.ar    1  UNL1        0.1475
     26 F          59.9969   85.8685    8.8950 F       1  UNL1       -0.2039
     27 C          61.4821   86.2164   10.9981 C.ar    1  UNL1        0.0666
     28 C          63.4118   85.1324   13.1474 C.3     1  UNL1        0.2525
     29 O          62.9673   86.5643   13.1012 O.3     1  UNL1       -0.4714
     30 C          57.3724   94.3903   -1.7309 C.2     1  UNL1        0.0626
     31 N          57.7574   95.7165   -2.3166 N.2     1  UNL1       -0.2538
     32 C          57.3466   95.7230   -3.7592 C.2     1  UNL1        0.0597
     33 C          57.5405   96.8532   -4.7261 C.3     1  UNL1        0.0519
     34 C          56.7076   94.4008   -4.0651 C.2     1  UNL1        0.0499
     35 C          56.7236   93.5772   -2.8116 C.3     1  UNL1        0.0681
     36 C          56.1853   92.1848   -2.6645 C.3     1  UNL1        0.0112
     37 C          56.1504   93.9766   -5.3916 C.2     1  UNL1        0.2434
     38 O          55.1846   94.8652   -6.1181 O.2     1  UNL1       -0.2704
     39 N          56.5591   92.6641   -5.9917 N.am    1  UNL1       -0.2997
     40 H          57.1930   92.0809   -5.5149 H       1  UNL1        0.1498
     41 C          56.0019   92.2400   -7.3182 C.3     1  UNL1        0.1070
     42 C          55.6554   90.8008   -7.5607 C.3     1  UNL1        0.0936
     43 N          54.5593   90.1498   -6.7703 N.3     1  UNL1       -0.2712
     44 C          53.1590   89.8986   -7.2460 C.3     1  UNL1        0.0722
     45 C          52.4052   89.2292   -6.1352 C.3     1  UNL1        0.0188
     46 C          53.3396   89.0668   -4.9730 C.3     1  UNL1        0.0188
     47 C          54.6709   89.6358   -5.3656 C.3     1  UNL1        0.0722
@<TRIPOS>BOND
     1    28    29    1
     2    29    21    1
     3    21    22   ar
     4    22    23   ar
     5    23    24   ar
     6    24    13    1
     7    13    14    2
     8    13    15   am
     9    15    16   am
    10    16    17    2
    11    16    18   am
    12    18     1    1
    13     1     2   ar
    14     2     3   ar
    15     3     4   ar
    16     4     5   ar
    17     5     6   ar
    18     5     7    1
    19     7     8   am
    20     8     9    2
    21     8    10    1
    22    10    11    2
    23    11    30    1
    24    30    31    2
    25    31    32    1
    26    32    33    1
    27    32    34    2
    28    34    37    1
    29    37    38    2
    30    37    39   am
    31    39    41    1
    32    41    42    1
    33    42    43    1
    34    43    44    1
    35    44    45    1
    36    45    46    1
    37    46    47    1
    38    34    35    1
    39    35    36    1
    40    24    25   ar
    41    25    26    1
    42    25    27   ar
    43    27    21   ar
    44     6     1   ar
    45    35    30    1
    46    10     4    1
    47    47    43    1
    48    15    19    1
    49    18    20    1
    50     7    12    1
    51    39    40    1
@<TRIPOS>MOLECULE
*****
 47 51 0 0 0
SMALL
GASTEIGER

@<TRIPOS>ATOM
      1 C          60.5169   92.1192    3.6615 C.ar    1  UNL1        0.0528
      2 C          59.9700   93.5128    3.7554 C.ar    1  UNL1        0.0148
      3 C          59.4550   94.2007    2.5259 C.ar    1  UNL1        0.0027
      4 C          59.4868   93.4950    1.2027 C.ar    1  UNL1        0.0180
      5 C          60.0337   92.1014    1.1089 C.ar    1  UNL1        0.0519
      6 C          60.5487   91.4135    2.3383 C.ar    1  UNL1        0.0294
      7 N          59.9373   91.6610   -0.3218 N.am    1  UNL1       -0.2803
      8 C          59.3309   92.7824   -1.1122 C.2     1  UNL1        0.2496
      9 O          59.0519   92.7721   -2.5860 O.2     1  UNL1       -0.2698
     10 C          59.0524   93.9159   -0.1700 C.2     1  UNL1        0.0560
     11 C          58.4461   95.2381   -0.5362 C.2     1  UNL1        0.0196
     12 H          60.2221   90.7890   -0.6792 H       1  UNL1        0.1552
     13 C          59.7692   88.8708    7.6476 C.2     1  UNL1        0.2548
     14 O          58.3651   88.6223    7.1818 O.2     1  UNL1       -0.2696
     15 N          60.6581   89.8071    6.8840 N.am    1  UNL1       -0.2358
     16 C          60.1430   90.4950    5.6546 C.2     1  UNL1        0.3104
     17 O          58.7390   90.2466    5.1888 O.2     1  UNL1       -0.2521
     18 N          61.0320   91.4313    4.8910 N.am    1  UNL1       -0.2680
     19 H          61.5796   89.9701    7.1898 H       1  UNL1        0.1594
     20 H          61.9535   91.5943    5.1967 H       1  UNL1        0.1564
     21 C          61.3145   86.8071   11.3359 C.ar    1  UNL1        0.1410
     22 C          61.1763   88.3006   11.3143 C.ar    1  UNL1        0.0372
     23 C          60.6612   88.9885   10.0850 C.ar    1  UNL1        0.0099
     24 C          60.2843   88.1829    8.8770 C.ar    1  UNL1        0.0814
     25 C          60.4225   86.6894    8.8985 C.ar    1  UNL1        0.1475
     26 F          60.0456   85.8838    7.6907 F       1  UNL1       -0.2039
     27 C          60.9376   86.0015   10.1280 C.ar    1  UNL1        0.0666
     28 C          62.6955   84.9012   12.4360 C.3     1  UNL1        0.2525
     29 O          61.8296   86.1193   12.5653 O.3     1  UNL1       -0.4714
     30 C          58.0595   95.5178   -1.9583 C.2     1  UNL1        0.0626
     31 N          56.6694   95.4690   -2.5200 N.2     1  UNL1       -0.2538
     32 C          56.7458   95.8164   -3.9771 C.2     1  UNL1        0.0597
     33 C          55.5883   95.8878   -4.9284 C.3     1  UNL1        0.0519
     34 C          58.1831   96.0800   -4.3161 C.2     1  UNL1        0.0499
     35 C          58.9949   95.8954   -3.0684 C.3     1  UNL1        0.0681
     36 C          60.4814   96.0596   -2.9512 C.3     1  UNL1        0.0112
     37 C          58.7152   96.4611   -5.6658 C.2     1  UNL1        0.2434
     38 O          57.7685   96.8471   -6.7634 O.2     1  UNL1       -0.2704
     39 N          60.1938   96.4564   -5.9178 N.am    1  UNL1       -0.2997
     40 H          60.8152   96.2031   -5.1974 H       1  UNL1        0.1498
     41 C          60.7258   96.8376   -7.2675 C.3     1  UNL1        0.1070
     42 C          62.1969   96.7478   -7.5465 C.3     1  UNL1        0.0936
     43 N          63.0829   95.9384   -6.6467 N.3     1  UNL1       -0.2712
     44 C          64.2122   96.4676   -5.8131 C.3     1  UNL1        0.0722
     45 C          64.8226   95.3140   -5.0736 C.3     1  UNL1        0.0188
     46 C          64.0706   94.0719   -5.4502 C.3     1  UNL1        0.0188
     47 C          62.9954   94.4578   -6.4224 C.3     1  UNL1        0.0722
@<TRIPOS>BOND
     1    28    29    1
     2    29    21    1
     3    21    22   ar
     4    22    23   ar
     5    23    24   ar
     6    24    13    1
     7    13    14    2
     8    13    15   am
     9    15    16   am
    10    16    17    2
    11    16    18   am
    12    18     1    1
    13     1     2   ar
    14     2     3   ar
    15     3     4   ar
    16     4     5   ar
    17     5     6   ar
    18     5     7    1
    19     7     8   am
    20     8     9    2
    21     8    10    1
    22    10    11    2
    23    11    30    1
    24    30    31    2
    25    31    32    1
    26    32    33    1
    27    32    34    2
    28    34    37    1
    29    37    38    2
    30    37    39   am
    31    39    41    1
    32    41    42    1
    33    42    43    1
    34    43    44    1
    35    44    45    1
    36    45    46    1
    37    46    47    1
    38    34    35    1
    39    35    36    1
    40    24    25   ar
    41    25    26    1
    42    25    27   ar
    43    27    21   ar
    44     6     1   ar
    45    35    30    1
    46    10     4    1
    47    47    43    1
    48    15    19    1
    49    18    20    1
    50     7    12    1
    51    39    40    1
@<TRIPOS>MOLECULE
*****
 47 51 0 0 0
SMALL
GASTEIGER

@<TRIPOS>ATOM
      1 C          59.3488   90.1276    6.3859 C.ar    1  UNL1        0.0528
      2 C          59.0344   88.6693    6.5426 C.ar    1  UNL1        0.0148
      3 C          59.6741   87.8785    7.6450 C.ar    1  UNL1        0.0027
      4 C          60.6282   88.5458    8.5906 C.ar    1  UNL1        0.0180
      5 C          60.9426   90.0041    8.4339 C.ar    1  UNL1        0.0519
      6 C          60.3029   90.7949    7.3316 C.ar    1  UNL1        0.0294
      7 N          61.9149   90.3868    9.5101 N.am    1  UNL1       -0.2803
      8 C          62.2014   89.1651   10.3319 C.2     1  UNL1        0.2496
      9 O          63.1216   89.0938   11.5144 O.2     1  UNL1       -0.2698
     10 C          61.4062   88.0273    9.7637 C.2     1  UNL1        0.0560
     11 C          61.3915   86.6183   10.2781 C.2     1  UNL1        0.0196
     12 H          62.2978   91.2826    9.6521 H       1  UNL1        0.1552
     13 C          59.7744   93.0034    2.0790 C.2     1  UNL1        0.2548
     14 O          61.2666   92.8594    2.1304 O.2     1  UNL1       -0.2696
     15 N          58.9219   92.3565    3.1300 N.am    1  UNL1       -0.2358
     16 C          59.5616   91.5655    4.2325 C.2     1  UNL1        0.3104
     17 O          61.0538   91.4215    4.2838 O.2     1  UNL1       -0.2521
     18 N          58.7091   90.9185    5.2835 N.am    1  UNL1       -0.2680
     19 H          57.9426   92.4509    3.0963 H       1  UNL1        0.1594
     20 H          57.7297   91.0130    5.2498 H       1  UNL1        0.1564
     21 C          57.8553   95.3761   -1.2281 C.ar    1  UNL1        0.1410
     22 C          57.5401   93.9181   -1.0707 C.ar    1  UNL1        0.0372
     23 C          58.1798   93.1272    0.0316 C.ar    1  UNL1        0.0099
     24 C          59.1347   93.7943    0.9767 C.ar    1  UNL1        0.0814
     25 C          59.4499   95.2524    0.8194 C.ar    1  UNL1        0.1475
     26 F          60.4048   95.9195    1.7644 F       1  UNL1       -0.2039
     27 C          58.8101   96.0433   -0.2831 C.ar    1  UNL1        0.0666
     28 C          55.7365   96.0712   -2.5615 C.3     1  UNL1        0.2525
     29 O          57.2156   96.1670   -2.3304 O.3     1  UNL1       -0.4714
     30 C          62.2261   86.2454   11.4673 C.2     1  UNL1        0.0626
     31 N          62.7574   87.1913   12.5032 N.2     1  UNL1       -0.2538
     32 C          63.5357   86.3916   13.5055 C.2     1  UNL1        0.0597
     33 C          64.2405   86.9364   14.7123 C.3     1  UNL1        0.0519
     34 C          63.4855   84.9514   13.0891 C.2     1  UNL1        0.0499
     35 C          62.6761   84.8610   11.8295 C.3     1  UNL1        0.0681
     36 C          62.3704   83.6066   11.0659 C.3     1  UNL1        0.0112
     37 C          64.1312   83.8031   13.8064 C.2     1  UNL1        0.2434
     38 O          64.2732   83.8359   15.2993 O.2     1  UNL1       -0.2704
     39 N          64.6349   82.6221   13.0309 N.am    1  UNL1       -0.2997
     40 H          64.5417   82.6006   12.0510 H       1  UNL1        0.1498
     41 C          65.2806   81.4739   13.7482 C.3     1  UNL1        0.1070
     42 C          64.4318   80.3990   14.3599 C.3     1  UNL1        0.0936
     43 N          62.9457   80.4103   14.1569 N.3     1  UNL1       -0.2712
     44 C          62.1389   79.3365   13.4888 C.3     1  UNL1        0.0722
     45 C          60.7000   79.7599   13.5053 C.3     1  UNL1        0.0188
     46 C          60.6174   81.0953   14.1835 C.3     1  UNL1        0.0188
     47 C          62.0054   81.4972   14.5862 C.3     1  UNL1        0.0722
@<TRIPOS>BOND
     1    28    29    1
     2    29    21    1
     3    21    22   ar
     4    22    23   ar
     5    23    24   ar
     6    24    13    1
     7    13    14    2
     8    13    15   am
     9    15    16   am
    10    16    17    2
    11    16    18   am
    12    18     1    1
    13     1     2   ar
    14     2     3   ar
    15     3     4   ar
    16     4     5   ar
    17     5     6   ar
    18     5     7    1
    19     7     8   am
    20     8     9    2
    21     8    10    1
    22    10    11    2
    23    11    30    1
    24    30    31    2
    25    31    32    1
    26    32    33    1
    27    32    34    2
    28    34    37    1
    29    37    38    2
    30    37    39   am
    31    39    41    1
    32    41    42    1
    33    42    43    1
    34    43    44    1
    35    44    45    1
    36    45    46    1
    37    46    47    1
    38    34    35    1
    39    35    36    1
    40    24    25   ar
    41    25    26    1
    42    25    27   ar
    43    27    21   ar
    44     6     1   ar
    45    35    30    1
    46    10     4    1
    47    47    43    1
    48    15    19    1
    49    18    20    1
    50     7    12    1
    51    39    40    1
@<TRIPOS>MOLECULE
*****
 47 51 0 0 0
SMALL
GASTEIGER

@<TRIPOS>ATOM
      1 C          59.4223   90.4652    5.9586 C.ar    1  UNL1        0.0528
      2 C          60.8357   90.9002    6.2095 C.ar    1  UNL1        0.0148
      3 C          61.5539   90.4410    7.4437 C.ar    1  UNL1        0.0027
      4 C          60.8586   89.5467    8.4271 C.ar    1  UNL1        0.0180
      5 C          59.4452   89.1117    8.1762 C.ar    1  UNL1        0.0519
      6 C          58.7271   89.5709    6.9420 C.ar    1  UNL1        0.0294
      7 N          59.0211   88.2341    9.3163 N.am    1  UNL1       -0.2803
      8 C          60.1724   88.1267   10.2718 C.2     1  UNL1        0.2496
      9 O          60.1856   87.3453   11.5522 O.2     1  UNL1       -0.2698
     10 C          61.3081   88.9380    9.7223 C.2     1  UNL1        0.0560
     11 C          62.6564   89.1103   10.3565 C.2     1  UNL1        0.0196
     12 H          58.1415   87.8040    9.4193 H       1  UNL1        0.1552
     13 C          59.3914   93.1347    1.5007 C.2     1  UNL1        0.2548
     14 O          60.8124   93.5511    1.7402 O.2     1  UNL1       -0.2696
     15 N          58.6887   92.2592    2.4954 N.am    1  UNL1       -0.2358
     16 C          59.4069   91.8000    3.7297 C.2     1  UNL1        0.3104
     17 O          60.8279   92.2164    3.9692 O.2     1  UNL1       -0.2521
     18 N          58.7041   90.9244    4.7244 N.am    1  UNL1       -0.2680
     19 H          57.7560   91.9859    2.3382 H       1  UNL1        0.1594
     20 H          57.7715   90.6511    4.5672 H       1  UNL1        0.1564
     21 C          57.2367   94.5122   -2.2019 C.ar    1  UNL1        0.1410
     22 C          57.2272   93.0604   -1.8250 C.ar    1  UNL1        0.0372
     23 C          57.9454   92.6012   -0.5908 C.ar    1  UNL1        0.0099
     24 C          58.6732   93.5939    0.2665 C.ar    1  UNL1        0.0814
     25 C          58.6827   95.0458   -0.1103 C.ar    1  UNL1        0.1475
     26 F          59.4104   96.0384    0.7469 F       1  UNL1       -0.2039
     27 C          57.9644   95.5049   -1.3446 C.ar    1  UNL1        0.0666
     28 C          56.1267   93.9778   -4.4894 C.3     1  UNL1        0.2525
     29 O          56.5185   94.9714   -3.4361 O.3     1  UNL1       -0.4714
     30 C          62.9632   88.4364   11.6610 C.2     1  UNL1        0.0626
     31 N          63.2419   89.1242   12.9647 N.2     1  UNL1       -0.2538
     32 C          63.4962   88.0694   14.0003 C.2     1  UNL1        0.0597
     33 C          63.8158   88.3116   15.4456 C.3     1  UNL1        0.0519
     34 C          63.3747   86.7295   13.3368 C.2     1  UNL1        0.0499
     35 C          63.0453   86.9564   11.8911 C.3     1  UNL1        0.0681
     36 C          62.8349   85.8904   10.8569 C.3     1  UNL1        0.0112
     37 C          63.5514   85.3968   14.0020 C.2     1  UNL1        0.2434
     38 O          64.8975   84.9933   14.5268 O.2     1  UNL1       -0.2704
     39 N          62.3823   84.4677   14.1426 N.am    1  UNL1       -0.2997
     40 H          61.4988   84.7326   13.7983 H       1  UNL1        0.1498
     41 C          62.5591   83.1350   14.8080 C.3     1  UNL1        0.1070
     42 C          63.4747   82.1113   14.2048 C.3     1  UNL1        0.0936
     43 N          63.5701   81.9760   12.7140 N.3     1  UNL1       -0.2712
     44 C          62.8101   80.9986   11.8670 C.3     1  UNL1        0.0722
     45 C          63.2125   81.2128   10.4380 C.3     1  UNL1        0.0188
     46 C          64.2212   82.3225   10.4017 C.3     1  UNL1        0.0188
     47 C          64.4422   82.7942   11.8084 C.3     1  UNL1        0.0722
@<TRIPOS>BOND
     1    28    29    1
     2    29    21    1
     3    21    22   ar
     4    22    23   ar
     5    23    24   ar
     6    24    13    1
     7    13    14    2
     8    13    15   am
     9    15    16   am
    10    16    17    2
    11    16    18   am
    12    18     1    1
    13     1     2   ar
    14     2     3   ar
    15     3     4   ar
    16     4     5   ar
    17     5     6   ar
    18     5     7    1
    19     7     8   am
    20     8     9    2
    21     8    10    1
    22    10    11    2
    23    11    30    1
    24    30    31    2
    25    31    32    1
    26    32    33    1
    27    32    34    2
    28    34    37    1
    29    37    38    2
    30    37    39   am
    31    39    41    1
    32    41    42    1
    33    42    43    1
    34    43    44    1
    35    44    45    1
    36    45    46    1
    37    46    47    1
    38    34    35    1
    39    35    36    1
    40    24    25   ar
    41    25    26    1
    42    25    27   ar
    43    27    21   ar
    44     6     1   ar
    45    35    30    1
    46    10     4    1
    47    47    43    1
    48    15    19    1
    49    18    20    1
    50     7    12    1
    51    39    40    1
@<TRIPOS>MOLECULE
*****
 47 51 0 0 0
SMALL
GASTEIGER

@<TRIPOS>ATOM
      1 C          58.9641   91.9746    3.6240 C.ar    1  UNL1        0.0528
      2 C          60.3972   92.2244    3.9893 C.ar    1  UNL1        0.0148
      3 C          60.9870   91.5691    5.2028 C.ar    1  UNL1        0.0027
      4 C          60.1436   90.6639    6.0510 C.ar    1  UNL1        0.0180
      5 C          58.7105   90.4141    5.6856 C.ar    1  UNL1        0.0519
      6 C          58.1207   91.0694    4.4721 C.ar    1  UNL1        0.0294
      7 N          58.1284   89.4801    6.7048 N.am    1  UNL1       -0.2803
      8 C          59.2018   89.1526    7.7001 C.2     1  UNL1        0.2496
      9 O          59.0554   88.2516    8.8904 O.2     1  UNL1       -0.2698
     10 C          60.4473   89.8843    7.2960 C.2     1  UNL1        0.0560
     11 C          61.7652   89.8435    8.0113 C.2     1  UNL1        0.0196
     12 H          57.2041   89.1414    6.7181 H       1  UNL1        0.1552
     13 C          59.4435   93.6272   -1.2790 C.2     1  UNL1        0.2548
     14 O          60.8630   93.1429   -1.3035 O.2     1  UNL1       -0.2696
     15 N          58.6139   93.4562   -0.0411 N.am    1  UNL1       -0.2358
     16 C          59.2038   92.8009    1.1725 C.2     1  UNL1        0.3104
     17 O          60.6232   92.3166    1.1480 O.2     1  UNL1       -0.2521
     18 N          58.3742   92.6299    2.4104 N.am    1  UNL1       -0.2680
     19 H          57.6823   93.7741   -0.0251 H       1  UNL1        0.1594
     20 H          57.4426   92.9478    2.4264 H       1  UNL1        0.1564
     21 C          57.6739   95.5932   -4.9195 C.ar    1  UNL1        0.1410
     22 C          58.2884   96.4318   -3.8383 C.ar    1  UNL1        0.0372
     23 C          58.8783   95.7765   -2.6248 C.ar    1  UNL1        0.0099
     24 C          58.8536   94.2825   -2.4925 C.ar    1  UNL1        0.0814
     25 C          58.2391   93.4439   -3.5738 C.ar    1  UNL1        0.1475
     26 F          58.2144   91.9500   -3.4415 F       1  UNL1       -0.2039
     27 C          57.6492   94.0993   -4.7873 C.ar    1  UNL1        0.0666
     28 C          55.7662   95.7780   -6.6736 C.3     1  UNL1        0.2525
     29 O          57.0840   96.2485   -6.1330 O.3     1  UNL1       -0.4714
     30 C          61.9199   89.0142    9.2516 C.2     1  UNL1        0.0626
     31 N          61.4995   87.5834    9.4137 N.2     1  UNL1       -0.2538
     32 C          61.8420   87.1549   10.8097 C.2     1  UNL1        0.0597
     33 C          61.5957   85.7988   11.4012 C.3     1  UNL1        0.0519
     34 C          62.4742   88.3209   11.5105 C.2     1  UNL1        0.0499
     35 C          62.5223   89.4699   10.5475 C.3     1  UNL1        0.0681
     36 C          63.0756   90.8351   10.8307 C.3     1  UNL1        0.0112
     37 C          62.9709   88.3354   12.9258 C.2     1  UNL1        0.2434
     38 O          62.6358   89.4871   13.8265 O.2     1  UNL1       -0.2704
     39 N          63.8027   87.1981   13.4404 N.am    1  UNL1       -0.2997
     40 H          64.0227   86.4422   12.8492 H       1  UNL1        0.1498
     41 C          64.2995   87.2127   14.8557 C.3     1  UNL1        0.1070
     42 C          64.2639   85.9573   15.6759 C.3     1  UNL1        0.0936
     43 N          63.7362   84.6863   15.0794 N.3     1  UNL1       -0.2712
     44 C          62.3369   84.1630   15.2152 C.3     1  UNL1        0.0722
     45 C          62.2510   82.8686   14.4620 C.3     1  UNL1        0.0188
     46 C          63.5971   82.5919   13.8607 C.3     1  UNL1        0.0188
     47 C          64.5150   83.7153   14.2423 C.3     1  UNL1        0.0722
@<TRIPOS>BOND
     1    28    29    1
     2    29    21    1
     3    21    22   ar
     4    22    23   ar
     5    23    24   ar
     6    24    13    1
     7    13    14    2
     8    13    15   am
     9    15    16   am
    10    16    17    2
    11    16    18   am
    12    18     1    1
    13     1     2   ar
    14     2     3   ar
    15     3     4   ar
    16     4     5   ar
    17     5     6   ar
    18     5     7    1
    19     7     8   am
    20     8     9    2
    21     8    10    1
    22    10    11    2
    23    11    30    1
    24    30    31    2
    25    31    32    1
    26    32    33    1
    27    32    34    2
    28    34    37    1
    29    37    38    2
    30    37    39   am
    31    39    41    1
    32    41    42    1
    33    42    43    1
    34    43    44    1
    35    44    45    1
    36    45    46    1
    37    46    47    1
    38    34    35    1
    39    35    36    1
    40    24    25   ar
    41    25    26    1
    42    25    27   ar
    43    27    21   ar
    44     6     1   ar
    45    35    30    1
    46    10     4    1
    47    47    43    1
    48    15    19    1
    49    18    20    1
    50     7    12    1
    51    39    40    1
@<TRIPOS>MOLECULE
*****
 47 51 0 0 0
SMALL
GASTEIGER

@<TRIPOS>ATOM
      1 C          59.0092   91.7386    3.9129 C.ar    1  UNL1        0.0528
      2 C          60.4431   92.0178    4.2536 C.ar    1  UNL1        0.0148
      3 C          61.0645   91.3815    5.4615 C.ar    1  UNL1        0.0027
      4 C          60.2520   90.4660    6.3286 C.ar    1  UNL1        0.0180
      5 C          58.8182   90.1868    5.9879 C.ar    1  UNL1        0.0519
      6 C          58.1968   90.8231    4.7800 C.ar    1  UNL1        0.0294
      7 N          58.2703   89.2485    7.0219 N.am    1  UNL1       -0.2803
      8 C          59.3655   88.9478    8.0018 C.2     1  UNL1        0.2496
      9 O          59.2552   88.0518    9.1998 O.2     1  UNL1       -0.2698
     10 C          60.5903   89.7002    7.5733 C.2     1  UNL1        0.0560
     11 C          61.9199   89.6889    8.2676 C.2     1  UNL1        0.0196
     12 H          57.3529   88.8925    7.0522 H       1  UNL1        0.1552
     13 C          59.4868   93.8275   -0.8209 C.2     1  UNL1        0.2548
     14 O          60.9686   93.5994   -0.7721 O.2     1  UNL1       -0.2696
     15 N          58.6266   93.4193    0.3381 N.am    1  UNL1       -0.2358
     16 C          59.2480   92.7830    1.5460 C.2     1  UNL1        0.3104
     17 O          60.7298   92.5549    1.5948 O.2     1  UNL1       -0.2521
     18 N          58.3878   92.3749    2.7050 N.am    1  UNL1       -0.2680
     19 H          57.6540   93.5690    0.3060 H       1  UNL1        0.1594
     20 H          57.4153   92.5246    2.6729 H       1  UNL1        0.1564
     21 C          57.6224   95.7363   -4.4445 C.ar    1  UNL1        0.1410
     22 C          58.1289   96.5931   -3.3223 C.ar    1  UNL1        0.0372
     23 C          58.7504   95.9569   -2.1145 C.ar    1  UNL1        0.0099
     24 C          58.8654   94.4637   -2.0288 C.ar    1  UNL1        0.0814
     25 C          58.3588   93.6069   -3.1509 C.ar    1  UNL1        0.1475
     26 F          58.4738   92.1138   -3.0653 F       1  UNL1       -0.2039
     27 C          57.7373   94.2432   -4.3588 C.ar    1  UNL1        0.0666
     28 C          56.3655   95.5166   -6.7077 C.3     1  UNL1        0.2525
     29 O          57.0009   96.3725   -5.6523 O.3     1  UNL1       -0.4714
     30 C          62.1102   88.8707    9.5103 C.2     1  UNL1        0.0626
     31 N          61.7978   87.4113    9.6614 N.2     1  UNL1       -0.2538
     32 C          62.1407   87.0067   11.0645 C.2     1  UNL1        0.0597
     33 C          61.9865   85.6340   11.6489 C.3     1  UNL1        0.0519
     34 C          62.6651   88.2160   11.7806 C.2     1  UNL1        0.0499
     35 C          62.6462   89.3679   10.8200 C.3     1  UNL1        0.0681
     36 C          63.0861   90.7710   11.1170 C.3     1  UNL1        0.0112
     37 C          63.1272   88.2649   13.2067 C.2     1  UNL1        0.2434
     38 O          63.8404   87.0885   13.8047 O.2     1  UNL1       -0.2704
     39 N          62.8763   89.4901   14.0349 N.am    1  UNL1       -0.2997
     40 H          62.4083   90.2622   13.6425 H       1  UNL1        0.1498
     41 C          63.3385   89.5388   15.4611 C.3     1  UNL1        0.1070
     42 C          63.8142   90.8331   16.0515 C.3     1  UNL1        0.0936
     43 N          64.9976   91.5381   15.4580 N.3     1  UNL1       -0.2712
     44 C          65.5668   91.3064   14.0896 C.3     1  UNL1        0.0722
     45 C          66.7407   92.2237   13.9144 C.3     1  UNL1        0.0188
     46 C          66.8969   93.0224   15.1745 C.3     1  UNL1        0.0188
     47 C          65.8196   92.5987   16.1285 C.3     1  UNL1        0.0722
@<TRIPOS>BOND
     1    28    29    1
     2    29    21    1
     3    21    22   ar
     4    22    23   ar
     5    23    24   ar
     6    24    13    1
     7    13    14    2
     8    13    15   am
     9    15    16   am
    10    16    17    2
    11    16    18   am
    12    18     1    1
    13     1     2   ar
    14     2     3   ar
    15     3     4   ar
    16     4     5   ar
    17     5     6   ar
    18     5     7    1
    19     7     8   am
    20     8     9    2
    21     8    10    1
    22    10    11    2
    23    11    30    1
    24    30    31    2
    25    31    32    1
    26    32    33    1
    27    32    34    2
    28    34    37    1
    29    37    38    2
    30    37    39   am
    31    39    41    1
    32    41    42    1
    33    42    43    1
    34    43    44    1
    35    44    45    1
    36    45    46    1
    37    46    47    1
    38    34    35    1
    39    35    36    1
    40    24    25   ar
    41    25    26    1
    42    25    27   ar
    43    27    21   ar
    44     6     1   ar
    45    35    30    1
    46    10     4    1
    47    47    43    1
    48    15    19    1
    49    18    20    1
    50     7    12    1
    51    39    40    1
@<TRIPOS>MOLECULE
*****
 47 51 0 0 0
SMALL
GASTEIGER

@<TRIPOS>ATOM
      1 C          58.9690   91.1908    4.8493 C.ar    1  UNL1        0.0528
      2 C          60.3825   91.4730    5.2645 C.ar    1  UNL1        0.0148
      3 C          61.0458   90.6138    6.2998 C.ar    1  UNL1        0.0027
      4 C          60.2956   89.4725    6.9199 C.ar    1  UNL1        0.0180
      5 C          58.8821   89.1903    6.5048 C.ar    1  UNL1        0.0519
      6 C          58.2188   90.0494    5.4695 C.ar    1  UNL1        0.0294
      7 N          58.3976   88.0047    7.2855 N.am    1  UNL1       -0.2803
      8 C          59.5117   87.5541    8.1832 C.2     1  UNL1        0.2496
      9 O          59.4615   86.3991    9.1390 O.2     1  UNL1       -0.2698
     10 C          60.6847   88.4613    7.9573 C.2     1  UNL1        0.0560
     11 C          62.0135   88.3728    8.6475 C.2     1  UNL1        0.0196
     12 H          57.5051   87.5943    7.2202 H       1  UNL1        0.1552
     13 C          59.0028   93.4144    0.1531 C.2     1  UNL1        0.2548
     14 O          60.3465   92.8080   -0.1244 O.2     1  UNL1       -0.2696
     15 N          58.3226   93.1617    1.4658 N.am    1  UNL1       -0.2358
     16 C          58.9859   92.3026    2.5012 C.2     1  UNL1        0.3104
     17 O          60.3295   91.6962    2.2237 O.2     1  UNL1       -0.2521
     18 N          58.3057   92.0499    3.8139 N.am    1  UNL1       -0.2680
     19 H          57.4407   93.5597    1.6479 H       1  UNL1        0.1594
     20 H          57.4238   92.4479    3.9960 H       1  UNL1        0.1564
     21 C          57.0127   95.9918   -2.9528 C.ar    1  UNL1        0.1410
     22 C          56.3810   94.6967   -2.5361 C.ar    1  UNL1        0.0372
     23 C          57.0443   93.8376   -1.5008 C.ar    1  UNL1        0.0099
     24 C          58.3395   94.2735   -0.8822 C.ar    1  UNL1        0.0814
     25 C          58.9712   95.5686   -1.2989 C.ar    1  UNL1        0.1475
     26 F          60.2663   96.0046   -0.6804 F       1  UNL1       -0.2039
     27 C          58.3078   96.4277   -2.3343 C.ar    1  UNL1        0.0666
     28 C          54.8600   96.8031   -4.1601 C.3     1  UNL1        0.2525
     29 O          56.3494   96.8509   -3.9881 O.3     1  UNL1       -0.4714
     30 C          62.2584   87.3017    9.6687 C.2     1  UNL1        0.0626
     31 N          62.3390   85.8283    9.3991 N.2     1  UNL1       -0.2538
     32 C          62.5960   85.1319   10.7026 C.2     1  UNL1        0.0597
     33 C          62.7482   83.6525   10.8968 C.3     1  UNL1        0.0519
     34 C          62.6742   86.1750   11.7778 C.2     1  UNL1        0.0499
     35 C          62.4655   87.5159   11.1389 C.3     1  UNL1        0.0681
     36 C          62.4642   88.8389   11.8458 C.3     1  UNL1        0.0112
     37 C          62.9182   85.9216   13.2360 C.2     1  UNL1        0.2434
     38 O          64.0717   86.5838   13.9294 O.2     1  UNL1       -0.2704
     39 N          62.0087   85.0061   14.0007 N.am    1  UNL1       -0.2997
     40 H          61.2516   84.5715   13.5455 H       1  UNL1        0.1498
     41 C          62.2528   84.7528   15.4588 C.3     1  UNL1        0.1070
     42 C          62.7688   83.4193   15.9123 C.3     1  UNL1        0.0936
     43 N          62.8133   82.2668   14.9534 N.3     1  UNL1       -0.2712
     44 C          61.6303   81.4993   14.4418 C.3     1  UNL1        0.0722
     45 C          62.1344   80.4374   13.5100 C.3     1  UNL1        0.0188
     46 C          63.6290   80.5486   13.4456 C.3     1  UNL1        0.0188
     47 C          64.0485   81.6792   14.3377 C.3     1  UNL1        0.0722
@<TRIPOS>BOND
     1    28    29    1
     2    29    21    1
     3    21    22   ar
     4    22    23   ar
     5    23    24   ar
     6    24    13    1
     7    13    14    2
     8    13    15   am
     9    15    16   am
    10    16    17    2
    11    16    18   am
    12    18     1    1
    13     1     2   ar
    14     2     3   ar
    15     3     4   ar
    16     4     5   ar
    17     5     6   ar
    18     5     7    1
    19     7     8   am
    20     8     9    2
    21     8    10    1
    22    10    11    2
    23    11    30    1
    24    30    31    2
    25    31    32    1
    26    32    33    1
    27    32    34    2
    28    34    37    1
    29    37    38    2
    30    37    39   am
    31    39    41    1
    32    41    42    1
    33    42    43    1
    34    43    44    1
    35    44    45    1
    36    45    46    1
    37    46    47    1
    38    34    35    1
    39    35    36    1
    40    24    25   ar
    41    25    26    1
    42    25    27   ar
    43    27    21   ar
    44     6     1   ar
    45    35    30    1
    46    10     4    1
    47    47    43    1
    48    15    19    1
    49    18    20    1
    50     7    12    1
    51    39    40    1
