@<TRIPOS>MOLECULE
*****
 38 41 0 0 0
SMALL
GASTEIGER

@<TRIPOS>ATOM
      1 C          64.2948   89.9491   13.8460 C.2     1  UNL1        0.2522
      2 O          64.3262   90.3925   15.2786 O.2     1  UNL1       -0.2699
      3 N          64.6571   90.9123   12.7546 N.am    1  UNL1       -0.2981
      4 H          64.6365   90.6213   11.8143 H       1  UNL1        0.1498
      5 C          63.1489   83.1886   13.3640 C.ar    1  UNL1        0.0509
      6 C          63.9712   83.4611   14.5886 C.ar    1  UNL1        0.0147
      7 C          64.3648   84.8678   14.9299 C.ar    1  UNL1        0.0043
      8 C          63.9362   86.0018   14.0466 C.ar    1  UNL1        0.0351
      9 C          64.3298   87.4084   14.3879 C.ar    1  UNL1        0.0141
     10 C          63.9012   88.5425   13.5047 C.ar    1  UNL1        0.1293
     11 C          63.0789   88.2699   12.2800 C.ar    1  UNL1        0.3502
     12 O          62.6503   89.4040   11.3968 O.2     1  UNL1       -0.2443
     13 O          62.6853   86.8633   11.9387 O.2     1  UNL1       -0.4209
     14 C          63.1139   85.7292   12.8221 C.ar    1  UNL1        0.1499
     15 C          62.7203   84.3226   12.4808 C.ar    1  UNL1        0.0521
     16 N          62.7553   81.7820   13.0227 N.pl3   1  UNL1       -0.3074
     17 C          60.6693   80.6884   14.1193 C.3     1  UNL1        0.0232
     18 C          62.1542   80.8956   14.0729 C.3     1  UNL1        0.0908
     19 C          62.9628   81.2617   11.6313 C.3     1  UNL1        0.0908
     20 C          63.7734   82.0528   10.6479 C.3     1  UNL1        0.0232
     21 C          65.0507   92.3189   13.0959 C.3     1  UNL1        0.1228
     22 C          65.5905   93.2262   12.0303 C.3     1  UNL1        0.1464
     23 O          64.7910   92.4888   10.9974 O.3     1  UNL1       -0.3790
     24 H          64.2895   91.7767   11.4244 H       1  UNL1        0.2108
     25 C          66.1304   94.1335   10.9648 C.ar    1  UNL1        0.0158
     26 C          65.5844   95.5225   10.8151 C.ar    1  UNL1       -0.0002
     27 C          66.1242   96.4298    9.7496 C.ar    1  UNL1        0.0112
     28 C          67.2102   95.9481    8.8337 C.ar    1  UNL1        0.0585
     29 CL         67.7500   96.8554    7.7682 Cl      1  UNL1       -0.0822
     30 C          67.7562   94.5591    8.9835 C.ar    1  UNL1        0.0225
     31 C          67.2163   93.6518   10.0490 C.ar    1  UNL1        0.0568
     32 CL         67.7624   92.2627   10.1987 Cl      1  UNL1       -0.0825
     33 C          66.3901   93.9636   13.0632 C.3     1  UNL1        0.1403
     34 N          67.1774   93.2010   14.0873 N.ar    1  UNL1       -0.3050
     35 C          67.1986   93.4701   15.5629 C.ar    1  UNL1        0.0981
     36 C          68.1161   92.4709   16.2031 C.ar    1  UNL1        0.1193
     37 N          68.6620   91.5843   15.1232 N.ar    1  UNL1       -0.2223
     38 C          68.0819   92.0356   13.8156 C.ar    1  UNL1        0.1787
@<TRIPOS>BOND
     1    17    18    1
     2    18    16    1
     3    16    19    1
     4    19    20    1
     5    16     5    1
     6     5     6   ar
     7     6     7   ar
     8     7     8   ar
     9     8     9   ar
    10     9    10   ar
    11    10     1    1
    12     1     2    2
    13     1     3   am
    14     3    21    1
    15    21    22    1
    16    22    23    1
    17    22    33    1
    18    33    34    1
    19    34    35   ar
    20    35    36   ar
    21    36    37   ar
    22    37    38   ar
    23    22    25    1
    24    25    26   ar
    25    26    27   ar
    26    27    28   ar
    27    28    29    1
    28    28    30   ar
    29    30    31   ar
    30    31    32    1
    31    10    11   ar
    32    11    12    2
    33    11    13   ar
    34    13    14   ar
    35    14    15   ar
    36    15     5   ar
    37    14     8   ar
    38    38    34   ar
    39    31    25   ar
    40     3     4    1
    41    23    24    1
@<TRIPOS>MOLECULE
*****
 38 41 0 0 0
SMALL
GASTEIGER

@<TRIPOS>ATOM
      1 C          63.7361   89.7844   13.6506 C.2     1  UNL1        0.2522
      2 O          62.7567   90.4719   14.5551 O.2     1  UNL1       -0.2699
      3 N          64.7599   90.5879   12.9047 N.am    1  UNL1       -0.2981
      4 H          65.4028   90.1367   12.3111 H       1  UNL1        0.1498
      5 C          62.9944   83.2160   11.7649 C.ar    1  UNL1        0.0509
      6 C          62.4743   84.1023   10.6722 C.ar    1  UNL1        0.0147
      7 C          62.5186   85.5932   10.8308 C.ar    1  UNL1        0.0043
      8 C          63.0830   86.1979   12.0821 C.ar    1  UNL1        0.0351
      9 C          63.1274   87.6888   12.2407 C.ar    1  UNL1        0.0141
     10 C          63.6918   88.2935   13.4920 C.ar    1  UNL1        0.1293
     11 C          64.2119   87.4072   14.5848 C.ar    1  UNL1        0.3502
     12 O          64.7763   88.0119   15.8361 O.2     1  UNL1       -0.2443
     13 O          64.1676   85.9163   14.4262 O.2     1  UNL1       -0.4209
     14 C          63.6031   85.3116   13.1748 C.ar    1  UNL1        0.1499
     15 C          63.5588   83.8207   13.0162 C.ar    1  UNL1        0.0521
     16 N          62.9500   81.7251   11.6063 N.pl3   1  UNL1       -0.3074
     17 C          62.8132   79.6718   10.0204 C.3     1  UNL1        0.0232
     18 C          63.1780   81.1071   10.2587 C.3     1  UNL1        0.0908
     19 C          62.6778   80.8521   12.7953 C.3     1  UNL1        0.0908
     20 C          61.4403   81.0664   13.6154 C.3     1  UNL1        0.0232
     21 C          64.8042   92.0788   13.0633 C.3     1  UNL1        0.1228
     22 C          65.4075   92.9301   11.9857 C.3     1  UNL1        0.1464
     23 O          64.7167   92.1010   10.9440 O.3     1  UNL1       -0.3790
     24 H          64.1999   91.4032   11.3764 H       1  UNL1        0.2108
     25 C          66.0109   93.7814   10.9080 C.ar    1  UNL1        0.0158
     26 C          65.4662   95.1537   10.6432 C.ar    1  UNL1       -0.0002
     27 C          66.0696   96.0049    9.5656 C.ar    1  UNL1        0.0112
     28 C          67.2176   95.4839    8.7528 C.ar    1  UNL1        0.0585
     29 CL         67.8210   96.3352    7.6752 Cl      1  UNL1       -0.0822
     30 C          67.7623   94.1117    9.0177 C.ar    1  UNL1        0.0225
     31 C          67.1590   93.2604   10.0953 C.ar    1  UNL1        0.0568
     32 CL         67.7036   91.8881   10.3602 Cl      1  UNL1       -0.0825
     33 C          66.0984   93.7592   13.0274 C.3     1  UNL1        0.1403
     34 N          67.0323   93.1095   14.0050 N.ar    1  UNL1       -0.3050
     35 C          67.2057   93.4905   15.4455 C.ar    1  UNL1        0.0981
     36 C          68.2374   92.5812   16.0445 C.ar    1  UNL1        0.1193
     37 N          68.7017   91.6383   14.9744 N.ar    1  UNL1       -0.2223
     38 C          67.9569   91.9648   13.7139 C.ar    1  UNL1        0.1787
@<TRIPOS>BOND
     1    17    18    1
     2    18    16    1
     3    16    19    1
     4    19    20    1
     5    16     5    1
     6     5     6   ar
     7     6     7   ar
     8     7     8   ar
     9     8     9   ar
    10     9    10   ar
    11    10     1    1
    12     1     2    2
    13     1     3   am
    14     3    21    1
    15    21    22    1
    16    22    23    1
    17    22    33    1
    18    33    34    1
    19    34    35   ar
    20    35    36   ar
    21    36    37   ar
    22    37    38   ar
    23    22    25    1
    24    25    26   ar
    25    26    27   ar
    26    27    28   ar
    27    28    29    1
    28    28    30   ar
    29    30    31   ar
    30    31    32    1
    31    10    11   ar
    32    11    12    2
    33    11    13   ar
    34    13    14   ar
    35    14    15   ar
    36    15     5   ar
    37    14     8   ar
    38    38    34   ar
    39    31    25   ar
    40     3     4    1
    41    23    24    1
@<TRIPOS>MOLECULE
*****
 38 41 0 0 0
SMALL
GASTEIGER

@<TRIPOS>ATOM
      1 C          59.0082   89.7339    6.3067 C.2     1  UNL1        0.2522
      2 O          57.5386   89.5770    6.5630 O.2     1  UNL1       -0.2699
      3 N          59.9968   88.9179    7.0857 N.am    1  UNL1       -0.2981
      4 H          60.9613   89.0210    6.9175 H       1  UNL1        0.1498
      5 C          62.3601   93.5887    1.7071 C.ar    1  UNL1        0.0509
      6 C          63.3069   92.5786    2.2844 C.ar    1  UNL1        0.0147
      7 C          62.8259   91.6056    3.3197 C.ar    1  UNL1        0.0043
      8 C          61.3980   91.6427    3.7778 C.ar    1  UNL1        0.0351
      9 C          60.9170   90.6698    4.8132 C.ar    1  UNL1        0.0141
     10 C          59.4892   90.7069    5.2713 C.ar    1  UNL1        0.1293
     11 C          58.5423   91.7170    4.6941 C.ar    1  UNL1        0.3502
     12 O          57.1145   91.7542    5.1522 O.2     1  UNL1       -0.2443
     13 O          59.0233   92.6900    3.6587 O.2     1  UNL1       -0.4209
     14 C          60.4513   92.6528    3.2006 C.ar    1  UNL1        0.1499
     15 C          60.9323   93.6258    2.1652 C.ar    1  UNL1        0.0521
     16 N          62.8411   94.5616    0.6718 N.pl3   1  UNL1       -0.3074
     17 C          61.9522   93.2711   -1.4005 C.3     1  UNL1        0.0232
     18 C          63.0047   94.1212   -0.7527 C.3     1  UNL1        0.0908
     19 C          63.1586   95.9750    1.0609 C.3     1  UNL1        0.0908
     20 C          64.2892   96.2570    2.0054 C.3     1  UNL1        0.0232
     21 C          59.5158   87.9450    8.1211 C.3     1  UNL1        0.1228
     22 C          60.4833   86.9988    8.7680 C.3     1  UNL1        0.1464
     23 O          59.8090   85.8443    8.0881 O.3     1  UNL1       -0.3790
     24 H          59.0737   86.1724    7.5470 H       1  UNL1        0.2108
     25 C          61.4509   86.0526    9.4151 C.ar    1  UNL1        0.0158
     26 C          61.4617   85.8946   10.9066 C.ar    1  UNL1       -0.0002
     27 C          62.4293   84.9485   11.5536 C.ar    1  UNL1        0.0112
     28 C          63.3860   84.1604   10.7089 C.ar    1  UNL1        0.0585
     29 CL         64.3537   83.2142   11.3559 Cl      1  UNL1       -0.0822
     30 C          63.3753   84.3184    9.2173 C.ar    1  UNL1        0.0225
     31 C          62.4077   85.2645    8.5704 C.ar    1  UNL1        0.0568
     32 CL         62.3969   85.4226    7.0788 Cl      1  UNL1       -0.0825
     33 C          61.1576   88.1533    9.4480 C.3     1  UNL1        0.1403
     34 N          60.3872   89.0142   10.4048 N.ar    1  UNL1       -0.3050
     35 C          59.6751   88.5427   11.6380 C.ar    1  UNL1        0.0981
     36 C          59.0415   89.7349   12.2917 C.ar    1  UNL1        0.1193
     37 N          59.3620   90.9431   11.4625 N.ar    1  UNL1       -0.2223
     38 C          60.1937   90.4977   10.2964 C.ar    1  UNL1        0.1787
@<TRIPOS>BOND
     1    17    18    1
     2    18    16    1
     3    16    19    1
     4    19    20    1
     5    16     5    1
     6     5     6   ar
     7     6     7   ar
     8     7     8   ar
     9     8     9   ar
    10     9    10   ar
    11    10     1    1
    12     1     2    2
    13     1     3   am
    14     3    21    1
    15    21    22    1
    16    22    23    1
    17    22    33    1
    18    33    34    1
    19    34    35   ar
    20    35    36   ar
    21    36    37   ar
    22    37    38   ar
    23    22    25    1
    24    25    26   ar
    25    26    27   ar
    26    27    28   ar
    27    28    29    1
    28    28    30   ar
    29    30    31   ar
    30    31    32    1
    31    10    11   ar
    32    11    12    2
    33    11    13   ar
    34    13    14   ar
    35    14    15   ar
    36    15     5   ar
    37    14     8   ar
    38    38    34   ar
    39    31    25   ar
    40     3     4    1
    41    23    24    1
@<TRIPOS>MOLECULE
*****
 38 41 0 0 0
SMALL
GASTEIGER

@<TRIPOS>ATOM
      1 C          59.5072   89.5688    6.9871 C.2     1  UNL1        0.2522
      2 O          58.6258   88.3568    6.9248 O.2     1  UNL1       -0.2699
      3 N          60.2658   89.8808    8.2430 N.am    1  UNL1       -0.2981
      4 H          60.8443   90.6763    8.2839 H       1  UNL1        0.1498
      5 C          61.3403   93.3998    1.5821 C.ar    1  UNL1        0.0509
      6 C          62.5587   92.7300    2.1451 C.ar    1  UNL1        0.0147
      7 C          62.4358   91.8299    3.3386 C.ar    1  UNL1        0.0043
      8 C          61.0944   91.5995    3.9693 C.ar    1  UNL1        0.0351
      9 C          60.9715   90.6993    5.1629 C.ar    1  UNL1        0.0141
     10 C          59.6302   90.4690    5.7935 C.ar    1  UNL1        0.1293
     11 C          58.4117   91.1388    5.2306 C.ar    1  UNL1        0.3502
     12 O          57.0704   90.9084    5.8612 O.2     1  UNL1       -0.2443
     13 O          58.5347   92.0389    4.0370 O.2     1  UNL1       -0.4209
     14 C          59.8761   92.2692    3.4063 C.ar    1  UNL1        0.1499
     15 C          59.9990   93.1694    2.2127 C.ar    1  UNL1        0.0521
     16 N          61.4633   94.2999    0.3885 N.pl3   1  UNL1       -0.3074
     17 C          60.0057   92.7769   -1.1300 C.3     1  UNL1        0.0232
     18 C          61.0998   93.7913   -0.9750 C.3     1  UNL1        0.0908
     19 C          61.9498   95.7086    0.5584 C.3     1  UNL1        0.0908
     20 C          61.3877   96.5696    1.6506 C.3     1  UNL1        0.0232
     21 C          60.1428   88.9807    9.4366 C.3     1  UNL1        0.1228
     22 C          60.9793   87.7390    9.5289 C.3     1  UNL1        0.1464
     23 O          59.7347   86.9079    9.6287 O.3     1  UNL1       -0.3790
     24 H          58.9563   87.4858    9.5939 H       1  UNL1        0.2108
     25 C          61.8159   86.4974    9.6213 C.ar    1  UNL1        0.0158
     26 C          62.5123   85.9699    8.4020 C.ar    1  UNL1       -0.0002
     27 C          63.3489   84.7282    8.4944 C.ar    1  UNL1        0.0112
     28 C          63.4889   84.0141    9.8060 C.ar    1  UNL1        0.0585
     29 CL         64.3255   82.7725    9.8984 Cl      1  UNL1       -0.0822
     30 C          62.7925   84.5416   11.0253 C.ar    1  UNL1        0.0225
     31 C          61.9560   85.7833   10.9329 C.ar    1  UNL1        0.0568
     32 CL         61.2595   86.3108   12.1522 Cl      1  UNL1       -0.0825
     33 C          62.2240   88.5702    9.4292 C.3     1  UNL1        0.1403
     34 N          62.6389   89.4403   10.5783 N.ar    1  UNL1       -0.3050
     35 C          62.7847   89.0048   12.0064 C.ar    1  UNL1        0.0981
     36 C          63.2168   90.1942   12.8118 C.ar    1  UNL1        0.1193
     37 N          63.3380   91.3647   11.8817 N.ar    1  UNL1       -0.2223
     38 C          62.9809   90.8988   10.5014 C.ar    1  UNL1        0.1787
@<TRIPOS>BOND
     1    17    18    1
     2    18    16    1
     3    16    19    1
     4    19    20    1
     5    16     5    1
     6     5     6   ar
     7     6     7   ar
     8     7     8   ar
     9     8     9   ar
    10     9    10   ar
    11    10     1    1
    12     1     2    2
    13     1     3   am
    14     3    21    1
    15    21    22    1
    16    22    23    1
    17    22    33    1
    18    33    34    1
    19    34    35   ar
    20    35    36   ar
    21    36    37   ar
    22    37    38   ar
    23    22    25    1
    24    25    26   ar
    25    26    27   ar
    26    27    28   ar
    27    28    29    1
    28    28    30   ar
    29    30    31   ar
    30    31    32    1
    31    10    11   ar
    32    11    12    2
    33    11    13   ar
    34    13    14   ar
    35    14    15   ar
    36    15     5   ar
    37    14     8   ar
    38    38    34   ar
    39    31    25   ar
    40     3     4    1
    41    23    24    1
@<TRIPOS>MOLECULE
*****
 38 41 0 0 0
SMALL
GASTEIGER

@<TRIPOS>ATOM
      1 C          63.6821   88.7245   15.0549 C.2     1  UNL1        0.2522
      2 O          63.0540   89.0755   16.3710 O.2     1  UNL1       -0.2699
      3 N          63.9373   87.2883   14.7050 N.am    1  UNL1       -0.2981
      4 H          64.3496   87.0579   13.8412 H       1  UNL1        0.1498
      5 C          66.1346   94.1398   11.6039 C.ar    1  UNL1        0.0509
      6 C          66.7221   94.1300   12.9839 C.ar    1  UNL1        0.0147
      7 C          66.3491   93.0449   13.9502 C.ar    1  UNL1        0.0043
      8 C          65.3886   91.9697   13.5363 C.ar    1  UNL1        0.0351
      9 C          65.0156   90.8847   14.5025 C.ar    1  UNL1        0.0141
     10 C          64.0551   89.8095   14.0887 C.ar    1  UNL1        0.1293
     11 C          63.4675   89.8193   12.7085 C.ar    1  UNL1        0.3502
     12 O          62.5070   88.7441   12.2947 O.2     1  UNL1       -0.2443
     13 O          63.8405   90.9043   11.7423 O.2     1  UNL1       -0.4209
     14 C          64.8011   91.9796   12.1562 C.ar    1  UNL1        0.1499
     15 C          65.1741   93.0646   11.1900 C.ar    1  UNL1        0.0521
     16 N          66.5075   95.2248   10.6376 N.pl3   1  UNL1       -0.3074
     17 C          67.9090   93.5746    9.2015 C.3     1  UNL1        0.0232
     18 C          67.5678   94.9782    9.6057 C.3     1  UNL1        0.0908
     19 C          65.8203   96.5564   10.7034 C.3     1  UNL1        0.0908
     20 C          64.6754   96.8559    9.7816 C.3     1  UNL1        0.0232
     21 C          63.5643   86.2032   15.6712 C.3     1  UNL1        0.1228
     22 C          63.3021   84.8129   15.1730 C.3     1  UNL1        0.1464
     23 O          62.5358   84.5085   16.4260 O.3     1  UNL1       -0.3790
     24 H          62.5305   85.2905   16.9999 H       1  UNL1        0.2108
     25 C          63.0399   83.4225   14.6748 C.ar    1  UNL1        0.0158
     26 C          61.6311   82.9216   14.5563 C.ar    1  UNL1       -0.0002
     27 C          61.3689   81.5312   14.0581 C.ar    1  UNL1        0.0112
     28 C          62.5156   80.6419   13.6784 C.ar    1  UNL1        0.0585
     29 CL         62.2534   79.2515   13.1801 Cl      1  UNL1       -0.0822
     30 C          63.9245   81.1429   13.7969 C.ar    1  UNL1        0.0225
     31 C          64.1866   82.5332   14.2951 C.ar    1  UNL1        0.0568
     32 CL         65.5955   83.0343   14.4136 Cl      1  UNL1       -0.0825
     33 C          64.0684   85.1174   13.9200 C.3     1  UNL1        0.1403
     34 N          63.3929   85.0165   12.5846 N.ar    1  UNL1       -0.3050
     35 C          62.1270   85.7133   12.1819 C.ar    1  UNL1        0.0981
     36 C          61.8165   85.3284   10.7657 C.ar    1  UNL1        0.1193
     37 N          62.8904   84.3939   10.2931 N.ar    1  UNL1       -0.2223
     38 C          63.8646   84.2011   11.4173 C.ar    1  UNL1        0.1787
@<TRIPOS>BOND
     1    17    18    1
     2    18    16    1
     3    16    19    1
     4    19    20    1
     5    16     5    1
     6     5     6   ar
     7     6     7   ar
     8     7     8   ar
     9     8     9   ar
    10     9    10   ar
    11    10     1    1
    12     1     2    2
    13     1     3   am
    14     3    21    1
    15    21    22    1
    16    22    23    1
    17    22    33    1
    18    33    34    1
    19    34    35   ar
    20    35    36   ar
    21    36    37   ar
    22    37    38   ar
    23    22    25    1
    24    25    26   ar
    25    26    27   ar
    26    27    28   ar
    27    28    29    1
    28    28    30   ar
    29    30    31   ar
    30    31    32    1
    31    10    11   ar
    32    11    12    2
    33    11    13   ar
    34    13    14   ar
    35    14    15   ar
    36    15     5   ar
    37    14     8   ar
    38    38    34   ar
    39    31    25   ar
    40     3     4    1
    41    23    24    1
@<TRIPOS>MOLECULE
*****
 38 41 0 0 0
SMALL
GASTEIGER

@<TRIPOS>ATOM
      1 C          62.9277   89.1573   12.1379 C.2     1  UNL1        0.2522
      2 O          62.4510   89.7377   13.4363 O.2     1  UNL1       -0.2699
      3 N          63.5492   90.0466   11.1020 N.am    1  UNL1       -0.2981
      4 H          63.8620   89.6656   10.2498 H       1  UNL1        0.1498
      5 C          62.9900   82.2849   12.0098 C.ar    1  UNL1        0.0509
      6 C          63.7765   82.7611   13.1950 C.ar    1  UNL1        0.0147
      7 C          63.9214   84.2308   13.4576 C.ar    1  UNL1        0.0043
      8 C          63.2797   85.2243   12.5351 C.ar    1  UNL1        0.0351
      9 C          63.4245   86.6940   12.7977 C.ar    1  UNL1        0.0141
     10 C          62.7828   87.6875   11.8752 C.ar    1  UNL1        0.1293
     11 C          61.9963   87.2114   10.6900 C.ar    1  UNL1        0.3502
     12 O          61.3546   88.2049    9.7675 O.2     1  UNL1       -0.2443
     13 O          61.8515   85.7417   10.4274 O.2     1  UNL1       -0.4209
     14 C          62.4932   84.7481   11.3500 C.ar    1  UNL1        0.1499
     15 C          62.3484   83.2784   11.0873 C.ar    1  UNL1        0.0521
     16 N          62.8452   80.8152   11.7472 N.pl3   1  UNL1       -0.3074
     17 C          62.7392   78.8509   10.0500 C.3     1  UNL1        0.0232
     18 C          63.1026   80.2698   10.3738 C.3     1  UNL1        0.0908
     19 C          62.4430   79.8909   12.8580 C.3     1  UNL1        0.0908
     20 C          61.4008   80.3178   13.8487 C.3     1  UNL1        0.0232
     21 C          63.6940   91.5163   11.3646 C.3     1  UNL1        0.1228
     22 C          64.7045   92.0043   12.3599 C.3     1  UNL1        0.1464
     23 O          63.6189   92.1671   13.3822 O.3     1  UNL1       -0.3790
     24 H          62.7689   91.9046   12.9957 H       1  UNL1        0.2108
     25 C          65.7150   92.4924   13.3553 C.ar    1  UNL1        0.0158
     26 C          66.2493   93.8905   13.2576 C.ar    1  UNL1       -0.0002
     27 C          67.2598   94.3785   14.2529 C.ar    1  UNL1        0.0112
     28 C          67.7361   93.4683   15.3459 C.ar    1  UNL1        0.0585
     29 CL         68.7467   93.9564   16.3412 Cl      1  UNL1       -0.0822
     30 C          67.2018   92.0701   15.4436 C.ar    1  UNL1        0.0225
     31 C          66.1913   91.5822   14.4483 C.ar    1  UNL1        0.0568
     32 CL         65.6570   90.1839   14.5460 Cl      1  UNL1       -0.0825
     33 C          65.7900   91.8416   11.3377 C.3     1  UNL1        0.1403
     34 N          66.2631   93.0277   10.5507 N.ar    1  UNL1       -0.3050
     35 C          67.5872   93.1545    9.8572 C.ar    1  UNL1        0.0981
     36 C          67.6375   94.5004    9.1969 C.ar    1  UNL1        0.1193
     37 N          66.3446   95.2055    9.4823 N.ar    1  UNL1       -0.2223
     38 C          65.4952   94.2952   10.3190 C.ar    1  UNL1        0.1787
@<TRIPOS>BOND
     1    17    18    1
     2    18    16    1
     3    16    19    1
     4    19    20    1
     5    16     5    1
     6     5     6   ar
     7     6     7   ar
     8     7     8   ar
     9     8     9   ar
    10     9    10   ar
    11    10     1    1
    12     1     2    2
    13     1     3   am
    14     3    21    1
    15    21    22    1
    16    22    23    1
    17    22    33    1
    18    33    34    1
    19    34    35   ar
    20    35    36   ar
    21    36    37   ar
    22    37    38   ar
    23    22    25    1
    24    25    26   ar
    25    26    27   ar
    26    27    28   ar
    27    28    29    1
    28    28    30   ar
    29    30    31   ar
    30    31    32    1
    31    10    11   ar
    32    11    12    2
    33    11    13   ar
    34    13    14   ar
    35    14    15   ar
    36    15     5   ar
    37    14     8   ar
    38    38    34   ar
    39    31    25   ar
    40     3     4    1
    41    23    24    1
