@<TRIPOS>MOLECULE
*****
 34 38 0 0 0
SMALL
GASTEIGER

@<TRIPOS>ATOM
      1 C          58.7393   94.6281   -1.3583 C.3     1  UNL1        0.0899
      2 C          58.7080   93.1921   -0.9260 C.3     1  UNL1        0.0287
      3 C          59.2402   92.8027    0.4213 C.3     1  UNL1        0.0588
      4 C          59.8524   92.8752    1.7887 C.3     1  UNL1        0.0174
      5 C          60.1957   94.3085    2.0674 C.3     1  UNL1        0.0174
      6 C          59.7957   95.1219    0.8722 C.3     1  UNL1        0.0588
      7 C          59.3027   95.6747   -0.4433 C.3     1  UNL1        0.0287
      8 N          59.2052   94.1912   -0.1452 N.3     1  UNL1       -0.2694
      9 C          58.1110   94.0051   -2.5695 C.ar    1  UNL1       -0.0145
     10 C          57.1293   94.7869   -3.3911 C.ar    1  UNL1       -0.0038
     11 C          56.5010   94.1639   -4.6024 C.ar    1  UNL1       -0.0003
     12 C          56.8543   92.7592   -4.9920 C.ar    1  UNL1       -0.0000
     13 C          57.8359   91.9773   -4.1703 C.ar    1  UNL1       -0.0003
     14 C          58.4642   92.6003   -2.9591 C.ar    1  UNL1       -0.0038
     15 N          57.6399   96.1923   -3.3510 N.am    1  UNL1       -0.3286
     16 C          58.5523   95.8478   -2.2112 C.2     1  UNL1        0.2223
     17 O          59.3876   96.8555   -1.8810 O.2     1  UNL1       -0.2750
     18 H          57.6935   97.0800   -3.7734 H       1  UNL1        0.1450
     19 H          56.9875   95.5308   -3.6766 H       1  UNL1        0.1450
     20 C          58.6730   94.5806   -1.4925 C.3     1  UNL1        0.1045
     21 C          57.2396   94.9967   -1.6410 C.ar    1  UNL1        0.0070
     22 C          56.9012   96.4259   -1.9459 C.ar    1  UNL1       -0.0018
     23 C          55.4677   96.8420   -2.0944 C.ar    1  UNL1       -0.0002
     24 C          54.3726   95.8290   -1.9380 C.ar    1  UNL1        0.0008
     25 C          54.7110   94.3998   -1.6331 C.ar    1  UNL1        0.0111
     26 C          56.1444   93.9836   -1.4845 C.ar    1  UNL1        0.0553
     27 CL         56.4827   92.5545   -1.1796 Cl      1  UNL1       -0.0825
     28 C          59.5743   94.5539   -2.6912 C.ar    1  UNL1        0.0070
     29 C          59.1389   95.2030   -3.9715 C.ar    1  UNL1       -0.0018
     30 C          60.0401   95.1763   -5.1702 C.ar    1  UNL1       -0.0002
     31 C          61.3768   94.5004   -5.0887 C.ar    1  UNL1        0.0008
     32 C          61.8121   93.8512   -3.8084 C.ar    1  UNL1        0.0111
     33 C          60.9108   93.8780   -2.6097 C.ar    1  UNL1        0.0553
     34 CL         61.7804   93.1265   -1.6457 Cl      1  UNL1       -0.0825
@<TRIPOS>BOND
     1    15    16   am
     2    16    17    2
     3    16     1    1
     4     1     9    1
     5     9    10   ar
     6    10    11   ar
     7    11    12   ar
     8    12    13   ar
     9    13    14   ar
    10     1     2    1
    11     2     3    1
    12     3     4    1
    13     4     5    1
    14     5     6    1
    15     6     7    1
    16     6     8    1
    17     8    20    1
    18    20    21    1
    19    21    22   ar
    20    22    23   ar
    21    23    24   ar
    22    24    25   ar
    23    25    26   ar
    24    26    27    1
    25    20    28    1
    26    28    29   ar
    27    29    30   ar
    28    30    31   ar
    29    31    32   ar
    30    32    33   ar
    31    33    34    1
    32     7     1    1
    33    26    21   ar
    34    33    28   ar
    35    14     9   ar
    36     8     3    1
    37    15    18    1
    38    15    19    1
@<TRIPOS>MOLECULE
*****
 34 38 0 0 0
SMALL
GASTEIGER

@<TRIPOS>ATOM
      1 C          61.6798   94.5587   -1.4494 C.3     1  UNL1        0.0899
      2 C          62.4302   93.2599   -1.4544 C.3     1  UNL1        0.0287
      3 C          63.1775   92.8302   -2.6819 C.3     1  UNL1        0.0588
      4 C          63.7539   92.8082   -4.0665 C.3     1  UNL1        0.0174
      5 C          63.3189   94.0598   -4.7695 C.3     1  UNL1        0.0174
      6 C          62.4737   94.8553   -3.8194 C.3     1  UNL1        0.0588
      7 C          61.6768   95.4278   -2.6720 C.3     1  UNL1        0.0287
      8 N          62.3863   94.0953   -2.5291 N.3     1  UNL1       -0.2694
      9 C          61.3869   94.0834   -0.0573 C.ar    1  UNL1       -0.0145
     10 C          60.1186   94.5006    0.6264 C.ar    1  UNL1       -0.0038
     11 C          59.8256   94.0253    2.0187 C.ar    1  UNL1       -0.0003
     12 C          60.8010   93.1328    2.7272 C.ar    1  UNL1       -0.0000
     13 C          62.0693   92.7155    2.0435 C.ar    1  UNL1       -0.0003
     14 C          62.3622   93.1908    0.6514 C.ar    1  UNL1       -0.0038
     15 N          59.7555   95.8163    0.0808 N.am    1  UNL1       -0.3286
     16 C          60.8277   95.6924   -0.9610 C.2     1  UNL1        0.2223
     17 O          61.0811   96.8552   -1.5980 O.2     1  UNL1       -0.2750
     18 H          59.3188   96.6848    0.2368 H       1  UNL1        0.1450
     19 H          59.4884   95.0292    0.6084 H       1  UNL1        0.1450
     20 C          61.6390   94.5251   -1.3016 C.3     1  UNL1        0.1045
     21 C          62.3428   95.3016   -0.2285 C.ar    1  UNL1        0.0070
     22 C          61.5476   96.0341    0.8114 C.ar    1  UNL1       -0.0018
     23 C          62.2515   96.8106    1.8845 C.ar    1  UNL1       -0.0002
     24 C          63.7504   96.8548    1.9178 C.ar    1  UNL1        0.0008
     25 C          64.5456   96.1224    0.8778 C.ar    1  UNL1        0.0111
     26 C          63.8418   95.3458   -0.1953 C.ar    1  UNL1        0.0553
     27 CL         64.6370   94.6134   -1.2351 Cl      1  UNL1       -0.0825
     28 C          60.1878   94.1782   -1.1471 C.ar    1  UNL1        0.0070
     29 C          59.1394   95.2321   -1.3471 C.ar    1  UNL1       -0.0018
     30 C          57.6883   94.8853   -1.1926 C.ar    1  UNL1       -0.0002
     31 C          57.2856   93.4845   -0.8383 C.ar    1  UNL1        0.0008
     32 C          58.3340   92.4305   -0.6384 C.ar    1  UNL1        0.0111
     33 C          59.7852   92.7774   -0.7928 C.ar    1  UNL1        0.0553
     34 CL         60.3802   91.4318   -0.5009 Cl      1  UNL1       -0.0825
@<TRIPOS>BOND
     1    15    16   am
     2    16    17    2
     3    16     1    1
     4     1     9    1
     5     9    10   ar
     6    10    11   ar
     7    11    12   ar
     8    12    13   ar
     9    13    14   ar
    10     1     2    1
    11     2     3    1
    12     3     4    1
    13     4     5    1
    14     5     6    1
    15     6     7    1
    16     6     8    1
    17     8    20    1
    18    20    21    1
    19    21    22   ar
    20    22    23   ar
    21    23    24   ar
    22    24    25   ar
    23    25    26   ar
    24    26    27    1
    25    20    28    1
    26    28    29   ar
    27    29    30   ar
    28    30    31   ar
    29    31    32   ar
    30    32    33   ar
    31    33    34    1
    32     7     1    1
    33    26    21   ar
    34    33    28   ar
    35    14     9   ar
    36     8     3    1
    37    15    18    1
    38    15    19    1
@<TRIPOS>MOLECULE
*****
 34 38 0 0 0
SMALL
GASTEIGER

@<TRIPOS>ATOM
      1 C          61.6525   94.5341   -0.5685 C.3     1  UNL1        0.0899
      2 C          60.9562   95.7547   -0.0438 C.3     1  UNL1        0.0287
      3 C          59.5587   96.0701   -0.4882 C.3     1  UNL1        0.0588
      4 C          58.2288   95.9909   -1.1773 C.3     1  UNL1        0.0174
      5 C          58.2260   94.7636   -2.0397 C.3     1  UNL1        0.0174
      6 C          59.5542   94.0843   -1.8836 C.3     1  UNL1        0.0588
      7 C          60.9513   93.6290   -1.5376 C.3     1  UNL1        0.0287
      8 N          60.3779   94.8918   -0.9247 N.3     1  UNL1       -0.2694
      9 C          62.7249   95.0813    0.3262 C.ar    1  UNL1       -0.0145
     10 C          62.4257   96.2356    1.2362 C.ar    1  UNL1       -0.0038
     11 C          63.4981   96.7829    2.1310 C.ar    1  UNL1       -0.0003
     12 C          64.8697   96.1758    2.1157 C.ar    1  UNL1       -0.0000
     13 C          65.1689   95.0215    1.2057 C.ar    1  UNL1       -0.0003
     14 C          64.0965   94.4743    0.3110 C.ar    1  UNL1       -0.0038
     15 N          64.2066   93.5687   -0.9819 N.am    1  UNL1       -0.3286
     16 C          62.7213   93.5036   -0.7824 C.2     1  UNL1        0.2223
     17 O          62.2417   92.2419   -0.7991 O.2     1  UNL1       -0.2750
     18 H          64.7233   92.7401   -1.1069 H       1  UNL1        0.1450
     19 H          64.6648   94.4401   -0.9878 H       1  UNL1        0.1450
     20 C          61.7754   94.5764   -0.4803 C.3     1  UNL1        0.1045
     21 C          62.0023   93.7011    0.7165 C.ar    1  UNL1        0.0070
     22 C          63.3274   93.0256    0.9114 C.ar    1  UNL1       -0.0018
     23 C          63.5541   92.1504    2.1083 C.ar    1  UNL1       -0.0002
     24 C          62.4560   91.9505    3.1102 C.ar    1  UNL1        0.0008
     25 C          61.1309   92.6260    2.9153 C.ar    1  UNL1        0.0111
     26 C          60.9040   93.5013    1.7185 C.ar    1  UNL1        0.0553
     27 CL         59.5790   94.1767    1.5237 Cl      1  UNL1       -0.0825
     28 C          62.9461   95.1362   -1.2328 C.ar    1  UNL1        0.0070
     29 C          63.7162   96.2933   -0.6688 C.ar    1  UNL1       -0.0018
     30 C          64.8868   96.8531   -1.4212 C.ar    1  UNL1       -0.0002
     31 C          65.2873   96.2559   -2.7376 C.ar    1  UNL1        0.0008
     32 C          64.5172   95.0988   -3.3016 C.ar    1  UNL1        0.0111
     33 C          63.3465   94.5390   -2.5491 C.ar    1  UNL1        0.0553
     34 CL         62.9527   93.4511   -3.5038 Cl      1  UNL1       -0.0825
@<TRIPOS>BOND
     1    15    16   am
     2    16    17    2
     3    16     1    1
     4     1     9    1
     5     9    10   ar
     6    10    11   ar
     7    11    12   ar
     8    12    13   ar
     9    13    14   ar
    10     1     2    1
    11     2     3    1
    12     3     4    1
    13     4     5    1
    14     5     6    1
    15     6     7    1
    16     6     8    1
    17     8    20    1
    18    20    21    1
    19    21    22   ar
    20    22    23   ar
    21    23    24   ar
    22    24    25   ar
    23    25    26   ar
    24    26    27    1
    25    20    28    1
    26    28    29   ar
    27    29    30   ar
    28    30    31   ar
    29    31    32   ar
    30    32    33   ar
    31    33    34    1
    32     7     1    1
    33    26    21   ar
    34    33    28   ar
    35    14     9   ar
    36     8     3    1
    37    15    18    1
    38    15    19    1
@<TRIPOS>MOLECULE
*****
 34 38 0 0 0
SMALL
GASTEIGER

@<TRIPOS>ATOM
      1 C          58.8536   94.4632   -1.5066 C.3     1  UNL1        0.0899
      2 C          58.8427   93.0638   -2.0466 C.3     1  UNL1        0.0287
      3 C          57.5384   92.3804   -2.3326 C.3     1  UNL1        0.0588
      4 C          56.0692   92.1079   -2.4631 C.3     1  UNL1        0.0174
      5 C          55.3288   93.3292   -2.0048 C.3     1  UNL1        0.0174
      6 C          56.3404   94.3566   -1.5911 C.3     1  UNL1        0.0588
      7 C          57.5602   95.1792   -1.2528 C.3     1  UNL1        0.0287
      8 N          57.7060   93.7702   -1.7937 N.3     1  UNL1       -0.2694
      9 C          60.3286   94.2017   -1.5821 C.ar    1  UNL1       -0.0145
     10 C          60.8846   93.3548   -2.6883 C.ar    1  UNL1       -0.0038
     11 C          62.3597   93.0932   -2.7638 C.ar    1  UNL1       -0.0003
     12 C          63.2789   93.6786   -1.7330 C.ar    1  UNL1       -0.0000
     13 C          62.7229   94.5255   -0.6268 C.ar    1  UNL1       -0.0003
     14 C          61.2479   94.7870   -0.5513 C.ar    1  UNL1       -0.0038
     15 N          60.6929   96.2184   -0.4283 N.am    1  UNL1       -0.3286
     16 C          59.3768   95.7718   -0.9929 C.2     1  UNL1        0.2223
     17 O          58.4638   96.7644   -1.0514 O.2     1  UNL1       -0.2750
     18 H          60.8158   97.1538   -0.1470 H       1  UNL1        0.1450
     19 H          61.4336   95.5761   -0.3391 H       1  UNL1        0.1450
     20 C          59.0103   94.4536   -1.5076 C.3     1  UNL1        0.1045
     21 C          59.7042   95.2280   -2.5887 C.ar    1  UNL1        0.0070
     22 C          60.8980   96.0738   -2.2574 C.ar    1  UNL1       -0.0018
     23 C          61.5917   96.8482   -3.3386 C.ar    1  UNL1       -0.0002
     24 C          61.0919   96.7770   -4.7510 C.ar    1  UNL1        0.0008
     25 C          59.8981   95.9313   -5.0823 C.ar    1  UNL1        0.0111
     26 C          59.2042   95.1568   -4.0012 C.ar    1  UNL1        0.0553
     27 CL         58.0105   94.3112   -4.3326 Cl      1  UNL1       -0.0825
     28 C          59.6208   94.3625   -0.1405 C.ar    1  UNL1        0.0070
     29 C          59.6978   95.5821    0.7293 C.ar    1  UNL1       -0.0018
     30 C          60.3083   95.4910    2.0963 C.ar    1  UNL1       -0.0002
     31 C          60.8417   94.1803    2.5937 C.ar    1  UNL1        0.0008
     32 C          60.7647   92.9606    1.7239 C.ar    1  UNL1        0.0111
     33 C          60.1542   93.0517    0.3568 C.ar    1  UNL1        0.0553
     34 CL         60.3190   91.6230   -0.0693 Cl      1  UNL1       -0.0825
@<TRIPOS>BOND
     1    15    16   am
     2    16    17    2
     3    16     1    1
     4     1     9    1
     5     9    10   ar
     6    10    11   ar
     7    11    12   ar
     8    12    13   ar
     9    13    14   ar
    10     1     2    1
    11     2     3    1
    12     3     4    1
    13     4     5    1
    14     5     6    1
    15     6     7    1
    16     6     8    1
    17     8    20    1
    18    20    21    1
    19    21    22   ar
    20    22    23   ar
    21    23    24   ar
    22    24    25   ar
    23    25    26   ar
    24    26    27    1
    25    20    28    1
    26    28    29   ar
    27    29    30   ar
    28    30    31   ar
    29    31    32   ar
    30    32    33   ar
    31    33    34    1
    32     7     1    1
    33    26    21   ar
    34    33    28   ar
    35    14     9   ar
    36     8     3    1
    37    15    18    1
    38    15    19    1
@<TRIPOS>MOLECULE
*****
 34 38 0 0 0
SMALL
GASTEIGER

@<TRIPOS>ATOM
      1 C          58.7712   94.5416   -1.5354 C.3     1  UNL1        0.0899
      2 C          58.7617   93.1265   -2.0329 C.3     1  UNL1        0.0287
      3 C          57.4585   92.4386   -2.3128 C.3     1  UNL1        0.0588
      4 C          55.9899   92.1665   -2.4515 C.3     1  UNL1        0.0174
      5 C          55.2484   93.4033   -2.0386 C.3     1  UNL1        0.0174
      6 C          56.2587   94.4398   -1.6448 C.3     1  UNL1        0.0588
      7 C          57.4773   95.2687   -1.3178 C.3     1  UNL1        0.0287
      8 N          57.6246   93.8436   -1.8143 N.3     1  UNL1       -0.2694
      9 C          60.2461   94.2736   -1.5863 C.ar    1  UNL1       -0.0145
     10 C          60.8164   93.4226   -2.6821 C.ar    1  UNL1       -0.0038
     11 C          62.2914   93.1546   -2.7330 C.ar    1  UNL1       -0.0003
     12 C          63.1961   93.7376   -1.6881 C.ar    1  UNL1       -0.0000
     13 C          62.6258   94.5885   -0.5924 C.ar    1  UNL1       -0.0003
     14 C          61.1509   94.8565   -0.5415 C.ar    1  UNL1       -0.0038
     15 N          60.6496   96.3672   -0.6609 N.am    1  UNL1       -0.3286
     16 C          59.2929   95.8636   -1.0556 C.2     1  UNL1        0.2223
     17 O          58.3313   96.8059   -0.9575 O.2     1  UNL1       -0.2750
     18 H          60.7624   97.3006   -0.3689 H       1  UNL1        0.1450
     19 H          61.4272   95.7644   -0.6939 H       1  UNL1        0.1450
     20 C          58.9279   94.5315   -1.5343 C.3     1  UNL1        0.1045
     21 C          59.5107   94.5003   -0.1526 C.ar    1  UNL1        0.0070
     22 C          59.6521   95.7718    0.6307 C.ar    1  UNL1       -0.0018
     23 C          60.2350   95.7406    2.0125 C.ar    1  UNL1       -0.0002
     24 C          60.6764   94.4381    2.6110 C.ar    1  UNL1        0.0008
     25 C          60.5350   93.1665    1.8278 C.ar    1  UNL1        0.0111
     26 C          59.9522   93.1977    0.4460 C.ar    1  UNL1        0.0553
     27 CL         59.8108   91.9262   -0.3371 Cl      1  UNL1       -0.0825
     28 C          59.6483   95.2505   -2.6362 C.ar    1  UNL1        0.0070
     29 C          60.8153   96.1367   -2.3159 C.ar    1  UNL1       -0.0018
     30 C          61.5357   96.8557   -3.4176 C.ar    1  UNL1       -0.0002
     31 C          61.0890   96.6886   -4.8398 C.ar    1  UNL1        0.0008
     32 C          59.9218   95.8024   -5.1602 C.ar    1  UNL1        0.0111
     33 C          59.2015   95.0834   -4.0583 C.ar    1  UNL1        0.0553
     34 CL         58.1686   94.3703   -4.8797 Cl      1  UNL1       -0.0825
@<TRIPOS>BOND
     1    15    16   am
     2    16    17    2
     3    16     1    1
     4     1     9    1
     5     9    10   ar
     6    10    11   ar
     7    11    12   ar
     8    12    13   ar
     9    13    14   ar
    10     1     2    1
    11     2     3    1
    12     3     4    1
    13     4     5    1
    14     5     6    1
    15     6     7    1
    16     6     8    1
    17     8    20    1
    18    20    21    1
    19    21    22   ar
    20    22    23   ar
    21    23    24   ar
    22    24    25   ar
    23    25    26   ar
    24    26    27    1
    25    20    28    1
    26    28    29   ar
    27    29    30   ar
    28    30    31   ar
    29    31    32   ar
    30    32    33   ar
    31    33    34    1
    32     7     1    1
    33    26    21   ar
    34    33    28   ar
    35    14     9   ar
    36     8     3    1
    37    15    18    1
    38    15    19    1
@<TRIPOS>MOLECULE
*****
 34 38 0 0 0
SMALL
GASTEIGER

@<TRIPOS>ATOM
      1 C          61.9093   93.9123   -1.3426 C.3     1  UNL1        0.0899
      2 C          62.7635   95.1444   -1.3890 C.3     1  UNL1        0.0287
      3 C          63.7781   95.3129   -2.4809 C.3     1  UNL1        0.0588
      4 C          64.6192   95.0636   -3.6976 C.3     1  UNL1        0.0174
      5 C          64.2185   93.7382   -4.2744 C.3     1  UNL1        0.0174
      6 C          63.1298   93.1683   -3.4142 C.3     1  UNL1        0.0588
      7 C          62.0696   92.8487   -2.3881 C.3     1  UNL1        0.0287
      8 N          62.8576   94.1416   -2.3057 N.3     1  UNL1       -0.2694
      9 C          61.3896   94.6352   -0.1354 C.ar    1  UNL1       -0.0145
     10 C          60.7964   93.8613    1.0045 C.ar    1  UNL1       -0.0038
     11 C          60.2767   94.5842    2.2118 C.ar    1  UNL1       -0.0003
     12 C          60.3501   96.0809    2.2790 C.ar    1  UNL1       -0.0000
     13 C          60.9432   96.8547    1.1391 C.ar    1  UNL1       -0.0003
     14 C          61.4629   96.1319   -0.0681 C.ar    1  UNL1       -0.0038
     15 N          60.4361   92.4403    0.4710 N.am    1  UNL1       -0.3286
     16 C          60.8745   92.9313   -0.8769 C.2     1  UNL1        0.2223
     17 O          60.1877   92.3669   -1.8928 O.2     1  UNL1       -0.2750
     18 H          59.7153   91.7735    0.5415 H       1  UNL1        0.1450
     19 H          60.8693   92.7849    1.2852 H       1  UNL1        0.1450
     20 C          61.8430   93.9731   -1.2138 C.3     1  UNL1        0.1045
     21 C          60.4395   94.4640   -1.4119 C.ar    1  UNL1        0.0070
     22 C          59.3508   94.0189   -0.4809 C.ar    1  UNL1       -0.0018
     23 C          57.9473   94.5098   -0.6790 C.ar    1  UNL1       -0.0002
     24 C          57.6325   95.4458   -1.8080 C.ar    1  UNL1        0.0008
     25 C          58.7212   95.8908   -2.7391 C.ar    1  UNL1        0.0111
     26 C          60.1247   95.4000   -2.5410 C.ar    1  UNL1        0.0553
     27 CL         61.2133   95.8450   -3.4720 Cl      1  UNL1       -0.0825
     28 C          62.2319   93.3137    0.0761 C.ar    1  UNL1        0.0070
     29 C          61.6384   91.9877    0.4494 C.ar    1  UNL1       -0.0018
     30 C          62.0273   91.3283    1.7392 C.ar    1  UNL1       -0.0002
     31 C          63.0097   91.9950    2.6560 C.ar    1  UNL1        0.0008
     32 C          63.6032   93.3211    2.2828 C.ar    1  UNL1        0.0111
     33 C          63.2143   93.9804    0.9928 C.ar    1  UNL1        0.0553
     34 CL         64.0522   95.2199    1.1011 Cl      1  UNL1       -0.0825
@<TRIPOS>BOND
     1    15    16   am
     2    16    17    2
     3    16     1    1
     4     1     9    1
     5     9    10   ar
     6    10    11   ar
     7    11    12   ar
     8    12    13   ar
     9    13    14   ar
    10     1     2    1
    11     2     3    1
    12     3     4    1
    13     4     5    1
    14     5     6    1
    15     6     7    1
    16     6     8    1
    17     8    20    1
    18    20    21    1
    19    21    22   ar
    20    22    23   ar
    21    23    24   ar
    22    24    25   ar
    23    25    26   ar
    24    26    27    1
    25    20    28    1
    26    28    29   ar
    27    29    30   ar
    28    30    31   ar
    29    31    32   ar
    30    32    33   ar
    31    33    34    1
    32     7     1    1
    33    26    21   ar
    34    33    28   ar
    35    14     9   ar
    36     8     3    1
    37    15    18    1
    38    15    19    1
@<TRIPOS>MOLECULE
*****
 34 38 0 0 0
SMALL
GASTEIGER

@<TRIPOS>ATOM
      1 C          58.7570   95.1824   -3.1602 C.3     1  UNL1        0.0899
      2 C          58.9650   94.3660   -4.4012 C.3     1  UNL1        0.0287
      3 C          59.9324   94.8288   -5.4500 C.3     1  UNL1        0.0588
      4 C          60.9508   95.6429   -6.1918 C.3     1  UNL1        0.0174
      5 C          61.2690   96.8528   -5.3643 C.3     1  UNL1        0.0174
      6 C          60.4473   96.7866   -4.1111 C.3     1  UNL1        0.0588
      7 C          59.5163   96.4617   -2.9680 C.3     1  UNL1        0.0287
      8 N          59.6213   95.5356   -4.1641 N.3     1  UNL1       -0.2694
      9 C          57.8114   94.0501   -2.8887 C.ar    1  UNL1       -0.0145
     10 C          56.5925   94.2770   -2.0443 C.ar    1  UNL1       -0.0038
     11 C          55.6469   93.1447   -1.7727 C.ar    1  UNL1       -0.0003
     12 C          55.9201   91.7856   -2.3455 C.ar    1  UNL1       -0.0000
     13 C          57.1390   91.5587   -3.1899 C.ar    1  UNL1       -0.0003
     14 C          58.0846   92.6910   -3.4614 C.ar    1  UNL1       -0.0038
     15 N          56.9351   95.3580   -1.0924 N.am    1  UNL1       -0.3286
     16 C          58.2205   95.6056   -1.8249 C.2     1  UNL1        0.2223
     17 O          59.0829   96.3780   -1.1307 O.2     1  UNL1       -0.2750
     18 H          56.7948   95.7470   -0.1989 H       1  UNL1        0.1450
     19 H          56.2317   94.8065   -1.5050 H       1  UNL1        0.1450
     20 C          58.6539   95.0728   -3.1153 C.3     1  UNL1        0.1045
     21 C          59.1227   94.1817   -2.0035 C.ar    1  UNL1        0.0070
     22 C          58.2544   93.9640   -0.7998 C.ar    1  UNL1       -0.0018
     23 C          58.7234   93.0729    0.3119 C.ar    1  UNL1       -0.0002
     24 C          60.0604   92.3994    0.2201 C.ar    1  UNL1        0.0008
     25 C          60.9288   92.6171   -0.9836 C.ar    1  UNL1        0.0111
     26 C          60.4599   93.5082   -2.0954 C.ar    1  UNL1        0.0553
     27 CL         61.3282   93.7258   -3.2990 Cl      1  UNL1       -0.0825
     28 C          57.2177   95.5010   -3.1783 C.ar    1  UNL1        0.0070
     29 C          56.6642   96.4254   -2.1347 C.ar    1  UNL1       -0.0018
     30 C          55.2281   96.8536   -2.1977 C.ar    1  UNL1       -0.0002
     31 C          54.3454   96.3575   -3.3043 C.ar    1  UNL1        0.0008
     32 C          54.8988   95.4330   -4.3480 C.ar    1  UNL1        0.0111
     33 C          56.3350   95.0048   -4.2849 C.ar    1  UNL1        0.0553
     34 CL         56.3718   94.1278   -5.5013 Cl      1  UNL1       -0.0825
@<TRIPOS>BOND
     1    15    16   am
     2    16    17    2
     3    16     1    1
     4     1     9    1
     5     9    10   ar
     6    10    11   ar
     7    11    12   ar
     8    12    13   ar
     9    13    14   ar
    10     1     2    1
    11     2     3    1
    12     3     4    1
    13     4     5    1
    14     5     6    1
    15     6     7    1
    16     6     8    1
    17     8    20    1
    18    20    21    1
    19    21    22   ar
    20    22    23   ar
    21    23    24   ar
    22    24    25   ar
    23    25    26   ar
    24    26    27    1
    25    20    28    1
    26    28    29   ar
    27    29    30   ar
    28    30    31   ar
    29    31    32   ar
    30    32    33   ar
    31    33    34    1
    32     7     1    1
    33    26    21   ar
    34    33    28   ar
    35    14     9   ar
    36     8     3    1
    37    15    18    1
    38    15    19    1
@<TRIPOS>MOLECULE
*****
 34 38 0 0 0
SMALL
GASTEIGER

@<TRIPOS>ATOM
      1 C          62.8032   94.6341   -0.8648 C.3     1  UNL1        0.0899
      2 C          62.9235   96.1189   -0.6892 C.3     1  UNL1        0.0287
      3 C          63.6860   96.6769    0.4757 C.3     1  UNL1        0.0588
      4 C          64.5044   96.7775    1.7287 C.3     1  UNL1        0.0174
      5 C          64.8057   95.3852    2.1985 C.3     1  UNL1        0.0174
      6 C          64.1736   94.4242    1.2358 C.3     1  UNL1        0.0588
      7 C          63.4454   93.7073    0.1245 C.3     1  UNL1        0.0287
      8 N          63.4816   95.2225    0.1710 N.3     1  UNL1       -0.2694
      9 C          62.0253   95.1014   -2.0591 C.ar    1  UNL1       -0.0145
     10 C          61.2568   96.3881   -1.9970 C.ar    1  UNL1       -0.0038
     11 C          60.4789   96.8555   -3.1914 C.ar    1  UNL1       -0.0003
     12 C          60.4696   96.0362   -4.4479 C.ar    1  UNL1       -0.0000
     13 C          61.2382   94.7496   -4.5100 C.ar    1  UNL1       -0.0003
     14 C          62.0160   94.2822   -3.3157 C.ar    1  UNL1       -0.0038
     15 N          62.2049   92.8163   -2.8559 N.am    1  UNL1       -0.3286
     16 C          62.4126   93.3115   -1.4552 C.2     1  UNL1        0.2223
     17 O          62.2022   92.3589   -0.5222 O.2     1  UNL1       -0.2750
     18 H          61.9422   91.8807   -3.0133 H       1  UNL1        0.1450
     19 H          62.3313   93.4269   -3.6177 H       1  UNL1        0.1450
     20 C          62.7190   94.6644   -0.9939 C.3     1  UNL1        0.1045
     21 C          63.4350   94.3338   -2.2698 C.ar    1  UNL1        0.0070
     22 C          63.5425   92.9075   -2.7217 C.ar    1  UNL1       -0.0018
     23 C          64.2585   92.5769   -3.9977 C.ar    1  UNL1       -0.0002
     24 C          64.8669   93.6726   -4.8218 C.ar    1  UNL1        0.0008
     25 C          64.7593   95.0989   -4.3700 C.ar    1  UNL1        0.0111
     26 C          64.0433   95.4295   -3.0941 C.ar    1  UNL1        0.0553
     27 CL         63.9358   96.8558   -2.6423 Cl      1  UNL1       -0.0825
     28 C          61.2405   94.4369   -0.8828 C.ar    1  UNL1        0.0070
     29 C          60.5300   93.6073   -1.9109 C.ar    1  UNL1       -0.0018
     30 C          59.0516   93.3798   -1.7998 C.ar    1  UNL1       -0.0002
     31 C          58.2836   93.9820   -0.6607 C.ar    1  UNL1        0.0008
     32 C          58.9941   94.8116    0.3674 C.ar    1  UNL1        0.0111
     33 C          60.4726   95.0391    0.2563 C.ar    1  UNL1        0.0553
     34 CL         60.6709   95.8911    1.4748 Cl      1  UNL1       -0.0825
@<TRIPOS>BOND
     1    15    16   am
     2    16    17    2
     3    16     1    1
     4     1     9    1
     5     9    10   ar
     6    10    11   ar
     7    11    12   ar
     8    12    13   ar
     9    13    14   ar
    10     1     2    1
    11     2     3    1
    12     3     4    1
    13     4     5    1
    14     5     6    1
    15     6     7    1
    16     6     8    1
    17     8    20    1
    18    20    21    1
    19    21    22   ar
    20    22    23   ar
    21    23    24   ar
    22    24    25   ar
    23    25    26   ar
    24    26    27    1
    25    20    28    1
    26    28    29   ar
    27    29    30   ar
    28    30    31   ar
    29    31    32   ar
    30    32    33   ar
    31    33    34    1
    32     7     1    1
    33    26    21   ar
    34    33    28   ar
    35    14     9   ar
    36     8     3    1
    37    15    18    1
    38    15    19    1
@<TRIPOS>MOLECULE
*****
 34 38 0 0 0
SMALL
GASTEIGER

@<TRIPOS>ATOM
      1 C          63.2225   84.1502   12.0181 C.3     1  UNL1        0.0899
      2 C          62.0761   85.1175   12.0238 C.3     1  UNL1        0.0287
      3 C          61.6194   85.7468   10.7411 C.3     1  UNL1        0.0588
      4 C          61.5126   86.1125    9.2903 C.3     1  UNL1        0.0174
      5 C          62.5727   85.3588    8.5431 C.3     1  UNL1        0.0174
      6 C          63.3346   84.5274    9.5321 C.3     1  UNL1        0.0588
      7 C          63.9122   83.8122   10.7296 C.3     1  UNL1        0.0287
      8 N          62.7455   84.7672   10.8906 N.3     1  UNL1       -0.2694
      9 C          62.8910   84.1525   13.4809 C.ar    1  UNL1       -0.0145
     10 C          61.6504   84.8410   13.9677 C.ar    1  UNL1       -0.0038
     11 C          61.3189   84.8433   15.4307 C.ar    1  UNL1       -0.0003
     12 C          62.2280   84.1572   16.4068 C.ar    1  UNL1       -0.0000
     13 C          63.4685   83.4687   15.9200 C.ar    1  UNL1       -0.0003
     14 C          63.8000   83.4664   14.4571 C.ar    1  UNL1       -0.0038
     15 N          64.2475   82.0976   13.5551 N.am    1  UNL1       -0.3286
     16 C          64.2538   83.1837   12.5205 C.2     1  UNL1        0.2223
     17 O          65.4486   83.3213   11.9075 O.2     1  UNL1       -0.2750
     18 H          65.0637   81.5736   13.7237 H       1  UNL1        0.1450
     19 H          63.4271   81.9088   14.0656 H       1  UNL1        0.1450
     20 C          63.2022   84.1379   12.1733 C.3     1  UNL1        0.1045
     21 C          62.7532   82.7519   12.5302 C.ar    1  UNL1        0.0070
     22 C          61.9770   82.5165   13.7920 C.ar    1  UNL1       -0.0018
     23 C          61.5280   81.1304   14.1488 C.ar    1  UNL1       -0.0002
     24 C          61.8552   79.9798   13.2440 C.ar    1  UNL1        0.0008
     25 C          62.6314   80.2152   11.9821 C.ar    1  UNL1        0.0111
     26 C          63.0804   81.6012   11.6252 C.ar    1  UNL1        0.0553
     27 CL         63.8566   81.8365   10.3634 Cl      1  UNL1       -0.0825
     28 C          64.1078   84.8946   13.0992 C.ar    1  UNL1        0.0070
     29 C          65.2423   84.1890   13.7812 C.ar    1  UNL1       -0.0018
     30 C          66.1479   84.9457   14.7070 C.ar    1  UNL1       -0.0002
     31 C          65.9191   86.4080   14.9508 C.ar    1  UNL1        0.0008
     32 C          64.7847   87.1136   14.2687 C.ar    1  UNL1        0.0111
     33 C          63.8790   86.3568   13.3429 C.ar    1  UNL1        0.0553
     34 CL         62.9601   87.4748   12.9482 Cl      1  UNL1       -0.0825
@<TRIPOS>BOND
     1    15    16   am
     2    16    17    2
     3    16     1    1
     4     1     9    1
     5     9    10   ar
     6    10    11   ar
     7    11    12   ar
     8    12    13   ar
     9    13    14   ar
    10     1     2    1
    11     2     3    1
    12     3     4    1
    13     4     5    1
    14     5     6    1
    15     6     7    1
    16     6     8    1
    17     8    20    1
    18    20    21    1
    19    21    22   ar
    20    22    23   ar
    21    23    24   ar
    22    24    25   ar
    23    25    26   ar
    24    26    27    1
    25    20    28    1
    26    28    29   ar
    27    29    30   ar
    28    30    31   ar
    29    31    32   ar
    30    32    33   ar
    31    33    34    1
    32     7     1    1
    33    26    21   ar
    34    33    28   ar
    35    14     9   ar
    36     8     3    1
    37    15    18    1
    38    15    19    1
