@<TRIPOS>MOLECULE
*****
 30 34 0 0 0
SMALL
GASTEIGER

@<TRIPOS>ATOM
      1 C          65.1548   95.8660   -5.4336 C.3     1  UNL1        0.0899
      2 N          65.0627   95.8931   -3.9367 N.3     1  UNL1       -0.2673
      3 C          65.9306   96.8289   -3.1487 C.3     1  UNL1        0.0787
      4 C          65.8384   96.8560   -1.6517 C.3     1  UNL1        0.0608
      5 C          64.8784   95.9472   -0.9428 C.ar    1  UNL1        0.0358
      6 C          64.0105   95.0114   -1.7309 C.ar    1  UNL1        0.0070
      7 C          63.1646   94.2381   -0.7632 C.ar    1  UNL1        0.0143
      8 C          62.1247   93.1762   -0.9651 C.ar    1  UNL1        0.0027
      9 C          61.4298   92.5721    0.2191 C.ar    1  UNL1        0.0177
     10 C          61.7749   93.0301    1.6051 C.ar    1  UNL1        0.0683
     11 C          62.8148   94.0920    1.8070 C.ar    1  UNL1        0.0348
     12 C          63.5096   94.6960    0.6229 C.ar    1  UNL1        0.0609
     13 N          64.5689   95.7523    0.5118 N.ar    1  UNL1       -0.3288
     14 C          65.2066   96.4850    1.6548 C.3     1  UNL1        0.1301
     15 C          64.1027   94.9844   -3.2278 C.3     1  UNL1        0.1003
     16 N          61.0800   92.4260    2.7894 N.ar    1  UNL1       -0.2729
     17 C          59.6472   92.7678    3.0731 C.ar    1  UNL1        0.0860
     18 C          58.9524   92.1638    4.2572 C.ar    1  UNL1        0.0561
     19 C          59.6903   91.2180    5.1577 C.ar    1  UNL1        0.1453
     20 C          61.1229   90.8762    4.8741 C.ar    1  UNL1        0.0980
     21 C          61.8178   91.4802    3.6899 C.ar    1  UNL1        0.2679
     22 O          63.2506   91.1383    3.4062 O.2     1  UNL1       -0.2665
     23 O          58.9954   90.6140    6.3419 O.3     1  UNL1       -0.4704
     24 C          58.9800   89.1251    6.5236 C.3     1  UNL1        0.2320
     25 C          59.6408   88.5087    7.7208 C.ar    1  UNL1        0.0212
     26 C          59.7925   87.0190    7.8098 C.ar    1  UNL1       -0.0007
     27 C          60.4533   86.4027    9.0070 C.ar    1  UNL1       -0.0002
     28 C          60.9625   87.2759   10.1152 C.ar    1  UNL1       -0.0000
     29 C          60.8108   88.7655   10.0263 C.ar    1  UNL1       -0.0002
     30 C          60.1500   89.3819    8.8291 C.ar    1  UNL1       -0.0007
@<TRIPOS>BOND
     1     1     2    1
     2     2     3    1
     3     3     4    1
     4     4     5    1
     5     5     6   ar
     6     6     7   ar
     7     7     8   ar
     8     8     9   ar
     9     9    10   ar
    10    10    16    1
    11    16    17   ar
    12    17    18   ar
    13    18    19   ar
    14    19    23    1
    15    23    24    1
    16    24    25    1
    17    25    26   ar
    18    26    27   ar
    19    27    28   ar
    20    28    29   ar
    21    29    30   ar
    22    19    20   ar
    23    20    21   ar
    24    21    22    2
    25    10    11   ar
    26    11    12   ar
    27    12    13   ar
    28    13    14    1
    29     6    15    1
    30    15     2    1
    31    13     5   ar
    32    12     7   ar
    33    21    16   ar
    34    30    25   ar
@<TRIPOS>MOLECULE
*****
 30 34 0 0 0
SMALL
GASTEIGER

@<TRIPOS>ATOM
      1 C          62.6115   78.0965   10.0763 C.3     1  UNL1        0.0899
      2 N          62.6299   79.1664   11.1276 N.3     1  UNL1       -0.2673
      3 C          62.4719   78.7999   12.5734 C.3     1  UNL1        0.0787
      4 C          62.4903   79.8697   13.6247 C.3     1  UNL1        0.0608
      5 C          62.6667   81.3060   13.2301 C.ar    1  UNL1        0.0358
      6 C          62.8247   81.6725   11.7842 C.ar    1  UNL1        0.0070
      7 C          62.9805   83.1620   11.6978 C.ar    1  UNL1        0.0143
      8 C          63.1706   84.0853   10.5311 C.ar    1  UNL1        0.0027
      9 C          63.2989   85.5626   10.7570 C.ar    1  UNL1        0.0177
     10 C          63.2372   86.1166   12.1496 C.ar    1  UNL1        0.0683
     11 C          63.0471   85.1932   13.3163 C.ar    1  UNL1        0.0348
     12 C          62.9188   83.7159   13.0904 C.ar    1  UNL1        0.0609
     13 N          62.7248   82.5689   14.0374 N.ar    1  UNL1       -0.3288
     14 C          62.6093   82.6674   15.5297 C.3     1  UNL1        0.1301
     15 C          62.8063   80.6027   10.7329 C.3     1  UNL1        0.1003
     16 N          63.3656   87.5940   12.3755 N.ar    1  UNL1       -0.2729
     17 C          62.8221   88.5576   11.3624 C.ar    1  UNL1        0.0860
     18 C          62.9505   90.0348   11.5883 C.ar    1  UNL1        0.0561
     19 C          63.6222   90.5485   12.8272 C.ar    1  UNL1        0.1453
     20 C          64.1657   89.5850   13.8401 C.ar    1  UNL1        0.0980
     21 C          64.0373   88.1077   13.6143 C.ar    1  UNL1        0.2679
     22 O          64.5808   87.1441   14.6273 O.2     1  UNL1       -0.2665
     23 O          63.7506   92.0259   13.0530 O.3     1  UNL1       -0.4704
     24 C          65.0585   92.7134   12.7946 C.3     1  UNL1        0.2320
     25 C          66.1888   92.5662   13.7696 C.ar    1  UNL1        0.0212
     26 C          67.5381   92.1179   13.2915 C.ar    1  UNL1       -0.0007
     27 C          68.6683   91.9707   14.2666 C.ar    1  UNL1       -0.0002
     28 C          68.4494   92.2718   15.7196 C.ar    1  UNL1       -0.0000
     29 C          67.1002   92.7200   16.1977 C.ar    1  UNL1       -0.0002
     30 C          65.9698   92.8672   15.2227 C.ar    1  UNL1       -0.0007
@<TRIPOS>BOND
     1     1     2    1
     2     2     3    1
     3     3     4    1
     4     4     5    1
     5     5     6   ar
     6     6     7   ar
     7     7     8   ar
     8     8     9   ar
     9     9    10   ar
    10    10    16    1
    11    16    17   ar
    12    17    18   ar
    13    18    19   ar
    14    19    23    1
    15    23    24    1
    16    24    25    1
    17    25    26   ar
    18    26    27   ar
    19    27    28   ar
    20    28    29   ar
    21    29    30   ar
    22    19    20   ar
    23    20    21   ar
    24    21    22    2
    25    10    11   ar
    26    11    12   ar
    27    12    13   ar
    28    13    14    1
    29     6    15    1
    30    15     2    1
    31    13     5   ar
    32    12     7   ar
    33    21    16   ar
    34    30    25   ar
@<TRIPOS>MOLECULE
*****
 30 34 0 0 0
SMALL
GASTEIGER

@<TRIPOS>ATOM
      1 C          62.5293   78.2102   10.4475 C.3     1  UNL1        0.0899
      2 N          62.5489   79.3582   11.4127 N.3     1  UNL1       -0.2673
      3 C          62.3942   79.1047   12.8830 C.3     1  UNL1        0.0787
      4 C          62.4139   80.2527   13.8482 C.3     1  UNL1        0.0608
      5 C          62.5882   81.6543   13.3431 C.ar    1  UNL1        0.0358
      6 C          62.7428   81.9078   11.8729 C.ar    1  UNL1        0.0070
      7 C          62.8971   83.3862   11.6711 C.ar    1  UNL1        0.0143
      8 C          63.0840   84.2166   10.4360 C.ar    1  UNL1        0.0027
      9 C          63.2115   85.7070   10.5465 C.ar    1  UNL1        0.0177
     10 C          63.1522   86.3671   11.8921 C.ar    1  UNL1        0.0683
     11 C          62.9653   85.5367   13.1273 C.ar    1  UNL1        0.0348
     12 C          62.8378   84.0463   13.0167 C.ar    1  UNL1        0.0609
     13 N          62.6469   82.9759   14.0501 N.ar    1  UNL1       -0.3288
     14 C          62.5343   83.1897   15.5305 C.3     1  UNL1        0.1301
     15 C          62.7232   80.7598   10.9077 C.3     1  UNL1        0.1003
     16 N          63.2797   87.8577   12.0026 N.ar    1  UNL1       -0.2729
     17 C          62.8244   88.7351   10.8744 C.ar    1  UNL1        0.0860
     18 C          62.9520   90.2255   10.9849 C.ar    1  UNL1        0.0561
     19 C          63.5347   90.8386   12.2236 C.ar    1  UNL1        0.1453
     20 C          63.9900   89.9612   13.3518 C.ar    1  UNL1        0.0980
     21 C          63.8625   88.4708   13.2414 C.ar    1  UNL1        0.2679
     22 O          64.3178   87.5934   14.3696 O.2     1  UNL1       -0.2665
     23 O          63.6622   92.3290   12.3341 O.3     1  UNL1       -0.4704
     24 C          64.9985   92.9486   12.6183 C.3     1  UNL1        0.2320
     25 C          65.9172   93.3022   11.4865 C.ar    1  UNL1        0.0212
     26 C          65.8411   94.6608   10.8552 C.ar    1  UNL1       -0.0007
     27 C          66.7599   95.0143    9.7235 C.ar    1  UNL1       -0.0002
     28 C          67.7547   94.0094    9.2231 C.ar    1  UNL1       -0.0000
     29 C          67.8308   92.6509    9.8544 C.ar    1  UNL1       -0.0002
     30 C          66.9120   92.2973   10.9861 C.ar    1  UNL1       -0.0007
@<TRIPOS>BOND
     1     1     2    1
     2     2     3    1
     3     3     4    1
     4     4     5    1
     5     5     6   ar
     6     6     7   ar
     7     7     8   ar
     8     8     9   ar
     9     9    10   ar
    10    10    16    1
    11    16    17   ar
    12    17    18   ar
    13    18    19   ar
    14    19    23    1
    15    23    24    1
    16    24    25    1
    17    25    26   ar
    18    26    27   ar
    19    27    28   ar
    20    28    29   ar
    21    29    30   ar
    22    19    20   ar
    23    20    21   ar
    24    21    22    2
    25    10    11   ar
    26    11    12   ar
    27    12    13   ar
    28    13    14    1
    29     6    15    1
    30    15     2    1
    31    13     5   ar
    32    12     7   ar
    33    21    16   ar
    34    30    25   ar
@<TRIPOS>MOLECULE
*****
 30 34 0 0 0
SMALL
GASTEIGER

@<TRIPOS>ATOM
      1 C          62.0127   78.5777   14.1961 C.3     1  UNL1        0.0899
      2 N          62.3449   79.7598   13.3346 N.3     1  UNL1       -0.2673
      3 C          62.5087   79.5862   11.8537 C.3     1  UNL1        0.0787
      4 C          62.8409   80.7683   10.9921 C.3     1  UNL1        0.0608
      5 C          63.0094   82.1240   11.6114 C.ar    1  UNL1        0.0358
      6 C          62.8456   82.2976   13.0923 C.ar    1  UNL1        0.0070
      7 C          63.0700   83.7448   13.4170 C.ar    1  UNL1        0.0143
      8 C          63.0380   84.4994   14.7129 C.ar    1  UNL1        0.0027
      9 C          63.3084   85.9747   14.7287 C.ar    1  UNL1        0.0177
     10 C          63.6107   86.6955   13.4484 C.ar    1  UNL1        0.0683
     11 C          63.6427   85.9409   12.1524 C.ar    1  UNL1        0.0348
     12 C          63.3723   84.4656   12.1367 C.ar    1  UNL1        0.0609
     13 N          63.3349   83.4638   11.0209 N.ar    1  UNL1       -0.3288
     14 C          63.5799   83.7515    9.5692 C.3     1  UNL1        0.1301
     15 C          62.5134   81.1155   13.9539 C.3     1  UNL1        0.1003
     16 N          63.8811   88.1709   13.4641 N.ar    1  UNL1       -0.2729
     17 C          64.7138   88.7691   14.5590 C.ar    1  UNL1        0.0860
     18 C          64.9842   90.2444   14.5746 C.ar    1  UNL1        0.0561
     19 C          64.4219   91.1215   13.4955 C.ar    1  UNL1        0.1453
     20 C          63.5893   90.5233   12.4007 C.ar    1  UNL1        0.0980
     21 C          63.3188   89.0479   12.3850 C.ar    1  UNL1        0.2679
     22 O          62.4861   88.4497   11.2901 O.2     1  UNL1       -0.2665
     23 O          64.6923   92.5968   13.5112 O.3     1  UNL1       -0.4704
     24 C          66.0882   93.1058   13.3054 C.3     1  UNL1        0.2320
     25 C          66.5735   93.4264   11.9227 C.ar    1  UNL1        0.0212
     26 C          66.3604   94.7972   11.3521 C.ar    1  UNL1       -0.0007
     27 C          66.8457   95.1177    9.9695 C.ar    1  UNL1       -0.0002
     28 C          67.5440   94.0675    9.1574 C.ar    1  UNL1       -0.0000
     29 C          67.7570   92.6968    9.7280 C.ar    1  UNL1       -0.0002
     30 C          67.2718   92.3762   11.1107 C.ar    1  UNL1       -0.0007
@<TRIPOS>BOND
     1     1     2    1
     2     2     3    1
     3     3     4    1
     4     4     5    1
     5     5     6   ar
     6     6     7   ar
     7     7     8   ar
     8     8     9   ar
     9     9    10   ar
    10    10    16    1
    11    16    17   ar
    12    17    18   ar
    13    18    19   ar
    14    19    23    1
    15    23    24    1
    16    24    25    1
    17    25    26   ar
    18    26    27   ar
    19    27    28   ar
    20    28    29   ar
    21    29    30   ar
    22    19    20   ar
    23    20    21   ar
    24    21    22    2
    25    10    11   ar
    26    11    12   ar
    27    12    13   ar
    28    13    14    1
    29     6    15    1
    30    15     2    1
    31    13     5   ar
    32    12     7   ar
    33    21    16   ar
    34    30    25   ar
@<TRIPOS>MOLECULE
*****
 30 34 0 0 0
SMALL
GASTEIGER

@<TRIPOS>ATOM
      1 C          62.4040   78.1393   13.3835 C.3     1  UNL1        0.0899
      2 N          62.6136   79.5280   12.8565 N.3     1  UNL1       -0.2673
      3 C          62.7332   79.7595   11.3793 C.3     1  UNL1        0.0787
      4 C          62.9427   81.1482   10.8523 C.3     1  UNL1        0.0608
      5 C          63.0327   82.3053   11.8025 C.ar    1  UNL1        0.0358
      6 C          62.9131   82.0738   13.2797 C.ar    1  UNL1        0.0070
      7 C          63.0406   83.4002   13.9686 C.ar    1  UNL1        0.0143
      8 C          63.0017   83.7865   15.4174 C.ar    1  UNL1        0.0027
      9 C          63.1611   85.2241   15.8148 C.ar    1  UNL1        0.0177
     10 C          63.3595   86.2753   14.7634 C.ar    1  UNL1        0.0683
     11 C          63.3984   85.8889   13.3145 C.ar    1  UNL1        0.0348
     12 C          63.2390   84.4514   12.9171 C.ar    1  UNL1        0.0609
     13 N          63.2341   83.7747   11.5784 N.ar    1  UNL1       -0.3288
     14 C          63.4013   84.4491   10.2490 C.3     1  UNL1        0.1301
     15 C          62.7035   80.6851   13.8067 C.3     1  UNL1        0.1003
     16 N          63.5190   87.7129   15.1608 N.ar    1  UNL1       -0.2729
     17 C          64.1826   88.6803   14.2259 C.ar    1  UNL1        0.0860
     18 C          64.3421   90.1178   14.6233 C.ar    1  UNL1        0.0561
     19 C          63.8380   90.5881   15.9555 C.ar    1  UNL1        0.1453
     20 C          63.1744   89.6208   16.8903 C.ar    1  UNL1        0.0980
     21 C          63.0149   88.1832   16.4929 C.ar    1  UNL1        0.2679
     22 O          62.3513   87.2159   17.4278 O.2     1  UNL1       -0.2665
     23 O          63.9975   92.0256   16.3528 O.3     1  UNL1       -0.4704
     24 C          65.3384   92.5398   16.7860 C.3     1  UNL1        0.2320
     25 C          66.4948   92.5169   15.8309 C.ar    1  UNL1        0.0212
     26 C          67.8995   92.4697   16.3549 C.ar    1  UNL1       -0.0007
     27 C          69.0558   92.4468   15.3998 C.ar    1  UNL1       -0.0002
     28 C          68.8075   92.4711   13.9207 C.ar    1  UNL1       -0.0000
     29 C          67.4029   92.5183   13.3967 C.ar    1  UNL1       -0.0002
     30 C          66.2464   92.5412   14.3518 C.ar    1  UNL1       -0.0007
@<TRIPOS>BOND
     1     1     2    1
     2     2     3    1
     3     3     4    1
     4     4     5    1
     5     5     6   ar
     6     6     7   ar
     7     7     8   ar
     8     8     9   ar
     9     9    10   ar
    10    10    16    1
    11    16    17   ar
    12    17    18   ar
    13    18    19   ar
    14    19    23    1
    15    23    24    1
    16    24    25    1
    17    25    26   ar
    18    26    27   ar
    19    27    28   ar
    20    28    29   ar
    21    29    30   ar
    22    19    20   ar
    23    20    21   ar
    24    21    22    2
    25    10    11   ar
    26    11    12   ar
    27    12    13   ar
    28    13    14    1
    29     6    15    1
    30    15     2    1
    31    13     5   ar
    32    12     7   ar
    33    21    16   ar
    34    30    25   ar
@<TRIPOS>MOLECULE
*****
 30 34 0 0 0
SMALL
GASTEIGER

@<TRIPOS>ATOM
      1 C          58.5171   94.9495   -0.6117 C.3     1  UNL1        0.0899
      2 N          59.4590   94.1874    0.2726 N.3     1  UNL1       -0.2673
      3 C          60.9152   94.1049   -0.0775 C.3     1  UNL1        0.0787
      4 C          61.8571   93.3428    0.8068 C.3     1  UNL1        0.0608
      5 C          61.3428   92.6632    2.0411 C.ar    1  UNL1        0.0358
      6 C          59.8866   92.7457    2.3912 C.ar    1  UNL1        0.0070
      7 C          59.6713   91.9795    3.6627 C.ar    1  UNL1        0.0143
      8 C          58.4415   91.7163    4.4799 C.ar    1  UNL1        0.0027
      9 C          58.5347   90.8971    5.7330 C.ar    1  UNL1        0.0177
     10 C          59.8579   90.3411    6.1688 C.ar    1  UNL1        0.0683
     11 C          61.0879   90.6043    5.3515 C.ar    1  UNL1        0.0348
     12 C          60.9946   91.4235    4.0985 C.ar    1  UNL1        0.0609
     13 N          62.0276   91.8460    3.0963 N.ar    1  UNL1       -0.3288
     14 C          63.4889   91.5104    3.1413 C.3     1  UNL1        0.1301
     15 C          58.9447   93.5078    1.5069 C.3     1  UNL1        0.1003
     16 N          59.9513   89.5218    7.4219 N.ar    1  UNL1       -0.2729
     17 C          60.4953   90.1333    8.6789 C.ar    1  UNL1        0.0860
     18 C          60.5886   89.3141    9.9319 C.ar    1  UNL1        0.0561
     19 C          60.1379   87.8834    9.9280 C.ar    1  UNL1        0.1453
     20 C          59.5939   87.2720    8.6710 C.ar    1  UNL1        0.0980
     21 C          59.5006   88.0911    7.4179 C.ar    1  UNL1        0.2679
     22 O          58.9566   87.4796    6.1609 O.2     1  UNL1       -0.2665
     23 O          60.2313   87.0643   11.1810 O.3     1  UNL1       -0.4704
     24 C          61.5744   86.6891   11.7337 C.3     1  UNL1        0.2320
     25 C          62.3144   85.5115   11.1718 C.ar    1  UNL1        0.0212
     26 C          62.6975   84.3700   12.0663 C.ar    1  UNL1       -0.0007
     27 C          63.4375   83.1926   11.5044 C.ar    1  UNL1       -0.0002
     28 C          63.7944   83.1565   10.0479 C.ar    1  UNL1       -0.0000
     29 C          63.4113   84.2979    9.1534 C.ar    1  UNL1       -0.0002
     30 C          62.6713   85.4755    9.7153 C.ar    1  UNL1       -0.0007
@<TRIPOS>BOND
     1     1     2    1
     2     2     3    1
     3     3     4    1
     4     4     5    1
     5     5     6   ar
     6     6     7   ar
     7     7     8   ar
     8     8     9   ar
     9     9    10   ar
    10    10    16    1
    11    16    17   ar
    12    17    18   ar
    13    18    19   ar
    14    19    23    1
    15    23    24    1
    16    24    25    1
    17    25    26   ar
    18    26    27   ar
    19    27    28   ar
    20    28    29   ar
    21    29    30   ar
    22    19    20   ar
    23    20    21   ar
    24    21    22    2
    25    10    11   ar
    26    11    12   ar
    27    12    13   ar
    28    13    14    1
    29     6    15    1
    30    15     2    1
    31    13     5   ar
    32    12     7   ar
    33    21    16   ar
    34    30    25   ar
@<TRIPOS>MOLECULE
*****
 30 34 0 0 0
SMALL
GASTEIGER

@<TRIPOS>ATOM
      1 C          64.6148   82.4555   15.3180 C.3     1  UNL1        0.0899
      2 N          64.3624   83.8321   14.7784 N.3     1  UNL1       -0.2673
      3 C          64.9475   85.0277   15.4699 C.3     1  UNL1        0.0787
      4 C          64.6950   86.4043   14.9302 C.3     1  UNL1        0.0608
      5 C          63.8575   86.5854   13.6991 C.ar    1  UNL1        0.0358
      6 C          63.2724   85.3898   13.0076 C.ar    1  UNL1        0.0070
      7 C          62.4930   85.8755   11.8215 C.ar    1  UNL1        0.0143
      8 C          61.7026   85.1491   10.7740 C.ar    1  UNL1        0.0027
      9 C          61.0156   85.9185    9.6850 C.ar    1  UNL1        0.0177
     10 C          61.1190   87.4143    9.6435 C.ar    1  UNL1        0.0683
     11 C          61.9095   88.1408   10.6910 C.ar    1  UNL1        0.0348
     12 C          62.5965   87.3714   11.7800 C.ar    1  UNL1        0.0609
     13 N          63.4398   87.8101   12.9404 N.ar    1  UNL1       -0.3288
     14 C          63.8018   89.2250   13.2821 C.3     1  UNL1        0.1301
     15 C          63.5248   84.0132   13.5473 C.3     1  UNL1        0.1003
     16 N          60.4320   88.1837    8.5544 N.ar    1  UNL1       -0.2729
     17 C          60.4217   89.6834    8.5873 C.ar    1  UNL1        0.0860
     18 C          59.7347   90.4527    7.4983 C.ar    1  UNL1        0.0561
     19 C          59.0580   89.7225    6.3763 C.ar    1  UNL1        0.1453
     20 C          59.0683   88.2230    6.3434 C.ar    1  UNL1        0.0980
     21 C          59.7552   87.4536    7.4324 C.ar    1  UNL1        0.2679
     22 O          59.7655   85.9539    7.3994 O.2     1  UNL1       -0.2665
     23 O          58.3710   90.4920    5.2873 O.3     1  UNL1       -0.4704
     24 C          58.8434   91.8701    4.9298 C.3     1  UNL1        0.2320
     25 C          60.0069   92.0464    3.9997 C.ar    1  UNL1        0.0212
     26 C          59.8616   92.8905    2.7683 C.ar    1  UNL1       -0.0007
     27 C          61.0251   93.0668    1.8383 C.ar    1  UNL1       -0.0002
     28 C          62.3340   92.3991    2.1397 C.ar    1  UNL1       -0.0000
     29 C          62.4794   91.5551    3.3711 C.ar    1  UNL1       -0.0002
     30 C          61.3159   91.3787    4.3012 C.ar    1  UNL1       -0.0007
@<TRIPOS>BOND
     1     1     2    1
     2     2     3    1
     3     3     4    1
     4     4     5    1
     5     5     6   ar
     6     6     7   ar
     7     7     8   ar
     8     8     9   ar
     9     9    10   ar
    10    10    16    1
    11    16    17   ar
    12    17    18   ar
    13    18    19   ar
    14    19    23    1
    15    23    24    1
    16    24    25    1
    17    25    26   ar
    18    26    27   ar
    19    27    28   ar
    20    28    29   ar
    21    29    30   ar
    22    19    20   ar
    23    20    21   ar
    24    21    22    2
    25    10    11   ar
    26    11    12   ar
    27    12    13   ar
    28    13    14    1
    29     6    15    1
    30    15     2    1
    31    13     5   ar
    32    12     7   ar
    33    21    16   ar
    34    30    25   ar
