@<TRIPOS>MOLECULE
*****
 40 41 0 0 0
SMALL
GASTEIGER

@<TRIPOS>ATOM
      1 C          62.3965   87.8426   11.0975 C.3     1  UNL1        0.0197
      2 C          61.7330   87.0960    9.9784 C.3     1  UNL1        0.0013
      3 C          62.8956   88.9891   11.9261 C.3     1  UNL1        0.0064
      4 C          63.6378   88.7248   13.2025 C.3     1  UNL1        0.0148
      5 C          63.8810   87.3140   13.6504 C.3     1  UNL1        0.1061
      6 C          63.3820   86.1676   12.8218 C.2     1  UNL1        0.1696
      7 O          63.7913   84.9219   13.5504 O.2     1  UNL1       -0.2948
      8 C          62.6397   86.4319   11.5454 C.3     1  UNL1        0.1576
      9 C          62.8829   85.0210   11.9932 C.2     1  UNL1        0.1844
     10 O          62.6565   84.3536   11.6206 O.2     1  UNL1       -0.2907
     11 C          63.6251   84.7568   13.2696 C.2     1  UNL1        0.0475
     12 C          64.1242   85.9033   14.0982 C.2     1  UNL1        0.1163
     13 O          64.8664   85.6390   15.3746 O.2     1  UNL1       -0.5096
     14 H          65.0183   84.7578   15.6544 H       1  UNL1        0.2917
     15 C          62.1407   85.2853   10.7168 C.2     1  UNL1        0.1629
     16 O          61.4408   84.9105   10.7885 O.2     1  UNL1       -0.2952
     17 C          62.9936   84.7288    9.6155 C.3     1  UNL1        0.0585
     18 C          62.9688   85.3607    8.2554 C.3     1  UNL1        0.0078
     19 C          63.8713   83.5402    9.8744 C.3     1  UNL1        0.0078
     20 C          61.9229   88.9941   10.2610 C.3     1  UNL1        0.0059
     21 C          60.5190   89.0102    9.7331 C.3     1  UNL1        0.0254
     22 C          59.1846   89.7713    6.0739 C.3     1  UNL1        0.0260
     23 C          59.5003   89.0371    7.3433 C.2     1  UNL1       -0.0478
     24 C          59.1129   87.5956    7.4921 C.3     1  UNL1        0.0260
     25 C          60.2033   89.7443    8.4637 C.2     1  UNL1       -0.0346
     26 C          62.6524   90.3999   11.4782 C.3     1  UNL1        0.0254
     27 C          63.7125   91.1381   10.7159 C.2     1  UNL1       -0.0346
     28 C          64.7696   91.9055   11.4533 C.2     1  UNL1       -0.0478
     29 C          65.8297   92.6437   10.6909 C.3     1  UNL1        0.0260
     30 C          64.7665   91.9347   12.9530 C.3     1  UNL1        0.0260
     31 C          64.6232   87.0498   14.9268 C.3     1  UNL1        0.0395
     32 C          63.9177   86.4110   16.0861 C.2     1  UNL1       -0.0337
     33 C          63.1594   87.2601   17.0629 C.2     1  UNL1       -0.0478
     34 C          62.4538   86.6212   18.2223 C.3     1  UNL1        0.0260
     35 C          63.1066   88.7479   16.8802 C.3     1  UNL1        0.0260
     36 C          63.8683   83.3460   13.7175 C.3     1  UNL1        0.0573
     37 C          62.7507   82.5470   14.3197 C.2     1  UNL1       -0.0297
     38 C          62.1840   81.3728   13.5782 C.2     1  UNL1       -0.0475
     39 C          61.0664   80.5739   14.1804 C.3     1  UNL1        0.0260
     40 C          62.7349   80.9974   12.2345 C.3     1  UNL1        0.0260
@<TRIPOS>BOND
     1    22    23    1
     2    23    24    1
     3    23    25    2
     4    25    21    1
     5    21    20    1
     6    20     1    1
     7     1     2    1
     8     1     3    1
     9     3    26    1
    10    26    27    1
    11    27    28    2
    12    28    29    1
    13    28    30    1
    14     3     4    1
    15     4     5    1
    16     5    31    1
    17    31    32    1
    18    32    33    2
    19    33    34    1
    20    33    35    1
    21     5     6    1
    22     6     7    2
    23     6     8    1
    24     8    15    1
    25    15    16    2
    26    15    17    1
    27    17    18    1
    28    17    19    1
    29     8     9    1
    30     9    10    2
    31     9    11    1
    32    11    36    1
    33    36    37    1
    34    37    38    2
    35    38    39    1
    36    38    40    1
    37    11    12    2
    38    12    13    1
    39     8     1    1
    40    12     5    1
    41    13    14    1
@<TRIPOS>MOLECULE
*****
 40 41 0 0 0
SMALL
GASTEIGER

@<TRIPOS>ATOM
      1 C          62.7691   87.9309   11.4202 C.3     1  UNL1        0.0197
      2 C          62.0536   87.3912   10.2174 C.3     1  UNL1        0.0013
      3 C          63.3956   88.9138   12.3643 C.3     1  UNL1        0.0064
      4 C          64.0300   88.4329   13.6356 C.3     1  UNL1        0.0148
      5 C          64.0379   86.9691   13.9629 C.3     1  UNL1        0.1061
      6 C          63.4114   85.9862   13.0189 C.2     1  UNL1        0.1696
      7 O          63.5952   84.6360   13.6459 O.2     1  UNL1       -0.2948
      8 C          62.7770   86.4671   11.7475 C.3     1  UNL1        0.1576
      9 C          62.7849   85.0032   12.0748 C.2     1  UNL1        0.1844
     10 O          62.4785   84.4119   11.6365 O.2     1  UNL1       -0.2907
     11 C          63.4193   84.5223   13.3461 C.2     1  UNL1        0.0475
     12 C          64.0458   85.5053   14.2902 C.2     1  UNL1        0.1163
     13 O          64.6801   85.0245   15.5616 O.2     1  UNL1       -0.5096
     14 H          64.6851   84.1100   15.7660 H       1  UNL1        0.2917
     15 C          62.1505   85.4840   10.8034 C.2     1  UNL1        0.1629
     16 O          61.3928   85.2365   10.8017 O.2     1  UNL1       -0.2952
     17 C          62.9747   84.8560    9.7188 C.3     1  UNL1        0.0585
     18 C          62.9304   85.4116    8.3262 C.3     1  UNL1        0.0078
     19 C          63.8432   83.6724   10.0268 C.3     1  UNL1        0.0078
     20 C          62.5128   89.2073   10.6752 C.3     1  UNL1        0.0059
     21 C          61.2665   89.3593    9.8545 C.3     1  UNL1        0.0254
     22 C          58.4857   91.5604   11.6356 C.3     1  UNL1        0.0260
     23 C          59.4375   90.4360   11.3530 C.2     1  UNL1       -0.0478
     24 C          59.5122   89.2641   12.2862 C.3     1  UNL1        0.0260
     25 C          60.3147   90.4836   10.1372 C.2     1  UNL1       -0.0346
     26 C          63.3878   90.3777   12.0370 C.3     1  UNL1        0.0254
     27 C          64.2613   91.3231   12.8072 C.2     1  UNL1       -0.0346
     28 C          65.1278   92.3066   12.0778 C.2     1  UNL1       -0.0478
     29 C          66.0013   93.2520   12.8480 C.3     1  UNL1        0.0260
     30 C          65.1207   92.3447   10.5783 C.3     1  UNL1        0.0260
     31 C          64.6723   86.4883   15.2343 C.3     1  UNL1        0.0395
     32 C          63.8125   86.0750   16.3919 C.2     1  UNL1       -0.0337
     33 C          63.1017   87.1145   17.2069 C.2     1  UNL1       -0.0478
     34 C          62.2419   86.7012   18.3645 C.3     1  UNL1        0.0260
     35 C          63.2507   88.5672   16.8643 C.3     1  UNL1        0.0260
     36 C          63.4272   83.0585   13.6734 C.3     1  UNL1        0.0573
     37 C          62.1848   82.4001   14.1961 C.2     1  UNL1       -0.0297
     38 C          61.7615   81.0646   13.6602 C.2     1  UNL1       -0.0475
     39 C          60.5192   80.4063   14.1829 C.3     1  UNL1        0.0260
     40 C          62.5805   80.3875   12.6015 C.3     1  UNL1        0.0260
@<TRIPOS>BOND
     1    22    23    1
     2    23    24    1
     3    23    25    2
     4    25    21    1
     5    21    20    1
     6    20     1    1
     7     1     2    1
     8     1     3    1
     9     3    26    1
    10    26    27    1
    11    27    28    2
    12    28    29    1
    13    28    30    1
    14     3     4    1
    15     4     5    1
    16     5    31    1
    17    31    32    1
    18    32    33    2
    19    33    34    1
    20    33    35    1
    21     5     6    1
    22     6     7    2
    23     6     8    1
    24     8    15    1
    25    15    16    2
    26    15    17    1
    27    17    18    1
    28    17    19    1
    29     8     9    1
    30     9    10    2
    31     9    11    1
    32    11    36    1
    33    36    37    1
    34    37    38    2
    35    38    39    1
    36    38    40    1
    37    11    12    2
    38    12    13    1
    39     8     1    1
    40    12     5    1
    41    13    14    1
@<TRIPOS>MOLECULE
*****
 40 41 0 0 0
SMALL
GASTEIGER

@<TRIPOS>ATOM
      1 C          62.0912   87.0956   10.7486 C.3     1  UNL1        0.0197
      2 C          61.4980   87.9063    9.6346 C.3     1  UNL1        0.0013
      3 C          62.4809   85.9037   11.5716 C.3     1  UNL1        0.0064
      4 C          63.2506   86.0910   12.8454 C.3     1  UNL1        0.0148
      5 C          63.6306   87.4702   13.2961 C.3     1  UNL1        0.1061
      6 C          63.2409   88.6622   12.4731 C.2     1  UNL1        0.1696
      7 O          63.7716   89.8601   13.2033 O.2     1  UNL1       -0.2948
      8 C          62.4712   88.4748   11.1993 C.3     1  UNL1        0.1576
      9 C          62.8513   89.8542   11.6500 C.2     1  UNL1        0.1844
     10 O          62.6887   90.5415   11.2803 O.2     1  UNL1       -0.2907
     11 C          63.6210   90.0415   12.9238 C.2     1  UNL1        0.0475
     12 C          64.0106   88.8495   13.7468 C.2     1  UNL1        0.1163
     13 O          64.7803   89.0368   15.0206 O.2     1  UNL1       -0.5096
     14 H          65.0178   89.8984   15.3021 H       1  UNL1        0.2917
     15 C          62.0816   89.6668   10.3762 C.2     1  UNL1        0.1629
     16 O          62.5690   90.1491    9.9695 O.2     1  UNL1       -0.2952
     17 C          60.6380   90.0567   10.2575 C.3     1  UNL1        0.0585
     18 C          59.8691   90.4670   11.4783 C.3     1  UNL1        0.0078
     19 C          59.9634   90.0364    8.9178 C.3     1  UNL1        0.0078
     20 C          61.5051   85.9978    9.9110 C.3     1  UNL1        0.0059
     21 C          60.5514   86.3287    8.8016 C.3     1  UNL1        0.0254
     22 C          61.8422   84.1378    5.7546 C.3     1  UNL1        0.0260
     23 C          61.8404   84.9533    7.0136 C.2     1  UNL1       -0.0478
     24 C          63.1256   85.2087    7.7437 C.3     1  UNL1        0.0260
     25 C          60.5533   85.5133    7.5426 C.2     1  UNL1       -0.0346
     26 C          62.1008   84.5243   11.1209 C.3     1  UNL1        0.0254
     27 C          62.4331   83.3377   11.9761 C.2     1  UNL1       -0.0346
     28 C          63.6671   82.5325   11.6950 C.2     1  UNL1       -0.0478
     29 C          63.9994   81.3459   12.5502 C.3     1  UNL1        0.0260
     30 C          64.5688   82.9141   10.5586 C.3     1  UNL1        0.0260
     31 C          64.4003   87.6576   14.5699 C.3     1  UNL1        0.0395
     32 C          63.6725   87.7653   15.8770 C.2     1  UNL1       -0.0337
     33 C          63.3536   86.5276   16.6621 C.2     1  UNL1       -0.0478
     34 C          62.6258   86.6354   17.9693 C.3     1  UNL1        0.0260
     35 C          63.7625   85.1822   16.1401 C.3     1  UNL1        0.0260
     36 C          64.0010   91.4207   13.3745 C.3     1  UNL1        0.0573
     37 C          65.4185   91.8913   13.2353 C.2     1  UNL1       -0.0297
     38 C          66.1973   92.2961   14.4517 C.2     1  UNL1       -0.0475
     39 C          67.6147   92.7666   14.3124 C.3     1  UNL1        0.0260
     40 C          65.5587   92.2302   15.8073 C.3     1  UNL1        0.0260
@<TRIPOS>BOND
     1    22    23    1
     2    23    24    1
     3    23    25    2
     4    25    21    1
     5    21    20    1
     6    20     1    1
     7     1     2    1
     8     1     3    1
     9     3    26    1
    10    26    27    1
    11    27    28    2
    12    28    29    1
    13    28    30    1
    14     3     4    1
    15     4     5    1
    16     5    31    1
    17    31    32    1
    18    32    33    2
    19    33    34    1
    20    33    35    1
    21     5     6    1
    22     6     7    2
    23     6     8    1
    24     8    15    1
    25    15    16    2
    26    15    17    1
    27    17    18    1
    28    17    19    1
    29     8     9    1
    30     9    10    2
    31     9    11    1
    32    11    36    1
    33    36    37    1
    34    37    38    2
    35    38    39    1
    36    38    40    1
    37    11    12    2
    38    12    13    1
    39     8     1    1
    40    12     5    1
    41    13    14    1
@<TRIPOS>MOLECULE
*****
 40 41 0 0 0
SMALL
GASTEIGER

@<TRIPOS>ATOM
      1 C          64.0553   89.2324   13.4191 C.3     1  UNL1        0.0197
      2 C          64.7641   88.9895   14.7186 C.3     1  UNL1        0.0013
      3 C          63.5172   89.9568   12.2210 C.3     1  UNL1        0.0064
      4 C          62.7337   89.2102   11.1824 C.3     1  UNL1        0.0148
      5 C          62.4883   87.7391   11.3419 C.3     1  UNL1        0.1061
      6 C          63.0264   87.0146   12.5401 C.2     1  UNL1        0.1696
      7 O          62.6036   85.5840   12.3825 O.2     1  UNL1       -0.2948
      8 C          63.8099   87.7612   13.5786 C.3     1  UNL1        0.1576
      9 C          63.5645   86.2900   13.7382 C.2     1  UNL1        0.1844
     10 O          63.8098   85.8249   14.3374 O.2     1  UNL1       -0.2907
     11 C          62.7810   85.5434   12.6997 C.2     1  UNL1        0.0475
     12 C          62.2429   86.2680   11.5015 C.2     1  UNL1        0.1163
     13 O          61.4594   85.5213   10.4629 O.2     1  UNL1       -0.5096
     14 H          61.3061   84.6023   10.5626 H       1  UNL1        0.2917
     15 C          64.3480   87.0367   14.7768 C.2     1  UNL1        0.1629
     16 O          65.0524   86.6686   14.8385 O.2     1  UNL1       -0.2952
     17 C          63.5308   86.9525   16.0319 C.3     1  UNL1        0.0585
     18 C          63.0997   88.2073   16.7317 C.3     1  UNL1        0.0078
     19 C          63.1446   85.6136   16.5871 C.3     1  UNL1        0.0078
     20 C          64.5469   90.6192   13.7108 C.3     1  UNL1        0.0059
     21 C          65.5751   90.8410   14.7801 C.3     1  UNL1        0.0254
     22 C          69.1271   92.6106   14.8252 C.3     1  UNL1        0.0260
     23 C          67.7223   92.2421   15.2003 C.2     1  UNL1       -0.0478
     24 C          67.0599   92.9063   16.3708 C.3     1  UNL1        0.0260
     25 C          66.9799   91.2095   14.4051 C.2     1  UNL1       -0.0346
     26 C          63.7627   91.4281   12.0614 C.3     1  UNL1        0.0254
     27 C          64.5167   91.9376   10.8690 C.2     1  UNL1       -0.0346
     28 C          65.5410   93.0207   11.0361 C.2     1  UNL1       -0.0478
     29 C          66.2950   93.5303    9.8438 C.3     1  UNL1        0.0260
     30 C          65.8112   93.5942   12.3956 C.3     1  UNL1        0.0260
     31 C          61.7048   86.9924   10.3033 C.3     1  UNL1        0.0395
     32 C          62.4180   86.1491    9.2884 C.2     1  UNL1       -0.0337
     33 C          61.7135   85.7321    8.0315 C.2     1  UNL1       -0.0478
     34 C          62.4268   84.8888    7.0165 C.3     1  UNL1        0.0260
     35 C          60.2959   86.1584    7.7895 C.3     1  UNL1        0.0260
     36 C          62.5355   84.0723   12.8592 C.3     1  UNL1        0.0573
     37 C          62.9492   83.1210   11.7756 C.2     1  UNL1       -0.0297
     38 C          62.7099   81.6492   11.9381 C.2     1  UNL1       -0.0475
     39 C          63.1236   80.6980   10.8546 C.3     1  UNL1        0.0260
     40 C          62.0570   81.1285   13.1842 C.3     1  UNL1        0.0260
@<TRIPOS>BOND
     1    22    23    1
     2    23    24    1
     3    23    25    2
     4    25    21    1
     5    21    20    1
     6    20     1    1
     7     1     2    1
     8     1     3    1
     9     3    26    1
    10    26    27    1
    11    27    28    2
    12    28    29    1
    13    28    30    1
    14     3     4    1
    15     4     5    1
    16     5    31    1
    17    31    32    1
    18    32    33    2
    19    33    34    1
    20    33    35    1
    21     5     6    1
    22     6     7    2
    23     6     8    1
    24     8    15    1
    25    15    16    2
    26    15    17    1
    27    17    18    1
    28    17    19    1
    29     8     9    1
    30     9    10    2
    31     9    11    1
    32    11    36    1
    33    36    37    1
    34    37    38    2
    35    38    39    1
    36    38    40    1
    37    11    12    2
    38    12    13    1
    39     8     1    1
    40    12     5    1
    41    13    14    1
@<TRIPOS>MOLECULE
*****
 40 41 0 0 0
SMALL
GASTEIGER

@<TRIPOS>ATOM
      1 C          63.7607   90.5002   12.3016 C.3     1  UNL1        0.0197
      2 C          63.0035   90.8193   11.0466 C.3     1  UNL1        0.0013
      3 C          64.6170   90.6912   13.5183 C.3     1  UNL1        0.0064
      4 C          64.9249   89.5244   14.4093 C.3     1  UNL1        0.0148
      5 C          64.3766   88.1668   14.0836 C.3     1  UNL1        0.1061
      6 C          63.5203   87.9759   12.8669 C.2     1  UNL1        0.1696
      7 O          63.1509   86.5222   12.8453 O.2     1  UNL1       -0.2948
      8 C          63.2124   89.1426   11.9759 C.3     1  UNL1        0.1576
      9 C          62.6640   87.7849   11.6502 C.2     1  UNL1        0.1844
     10 O          62.2034   87.5898   11.0295 O.2     1  UNL1       -0.2907
     11 C          62.9720   86.6182   12.5412 C.2     1  UNL1        0.0475
     12 C          63.8283   86.8091   13.7579 C.2     1  UNL1        0.1163
     13 O          64.1362   85.6424   14.6489 O.2     1  UNL1       -0.5096
     14 H          63.7937   84.7943   14.4455 H       1  UNL1        0.2917
     15 C          62.3561   88.9516   10.7592 C.2     1  UNL1        0.1629
     16 O          62.5879   88.6765   10.0478 O.2     1  UNL1       -0.2952
     17 C          60.8963   89.2929   10.8084 C.3     1  UNL1        0.0585
     18 C          60.2406   89.5950   12.1232 C.3     1  UNL1        0.0078
     19 C          60.0921   89.3320    9.5427 C.3     1  UNL1        0.0078
     20 C          64.0461   91.9688   12.1914 C.3     1  UNL1        0.0059
     21 C          64.5297   92.5435   10.8931 C.3     1  UNL1        0.0254
     22 C          68.2581   93.0487    9.6306 C.3     1  UNL1        0.0260
     23 C          66.8724   93.3550   10.1166 C.2     1  UNL1       -0.0478
     24 C          66.4439   94.7792   10.3121 C.3     1  UNL1        0.0260
     25 C          65.9153   92.2373   10.4071 C.2     1  UNL1       -0.0346
     26 C          65.1653   92.0489   13.8440 C.3     1  UNL1        0.0254
     27 C          66.0792   92.2262   15.0201 C.2     1  UNL1       -0.0346
     28 C          67.5649   92.1304   14.8367 C.2     1  UNL1       -0.0478
     29 C          68.4788   92.3077   16.0128 C.3     1  UNL1        0.0260
     30 C          68.1366   91.8572   13.4771 C.3     1  UNL1        0.0260
     31 C          64.6845   87.0000   14.9746 C.3     1  UNL1        0.0395
     32 C          63.5790   86.3141   15.7211 C.2     1  UNL1       -0.0337
     33 C          62.8393   87.0437   16.8030 C.2     1  UNL1       -0.0478
     34 C          61.7337   86.3576   17.5495 C.3     1  UNL1        0.0260
     35 C          63.2051   88.4591   17.1384 C.3     1  UNL1        0.0260
     36 C          62.4237   85.2605   12.2155 C.3     1  UNL1        0.0573
     37 C          62.9745   84.4881   11.0536 C.2     1  UNL1       -0.0297
     38 C          63.8521   83.2957   11.2941 C.2     1  UNL1       -0.0475
     39 C          64.4029   82.5234   10.1321 C.3     1  UNL1        0.0260
     40 C          64.1790   82.8756   12.6964 C.3     1  UNL1        0.0260
@<TRIPOS>BOND
     1    22    23    1
     2    23    24    1
     3    23    25    2
     4    25    21    1
     5    21    20    1
     6    20     1    1
     7     1     2    1
     8     1     3    1
     9     3    26    1
    10    26    27    1
    11    27    28    2
    12    28    29    1
    13    28    30    1
    14     3     4    1
    15     4     5    1
    16     5    31    1
    17    31    32    1
    18    32    33    2
    19    33    34    1
    20    33    35    1
    21     5     6    1
    22     6     7    2
    23     6     8    1
    24     8    15    1
    25    15    16    2
    26    15    17    1
    27    17    18    1
    28    17    19    1
    29     8     9    1
    30     9    10    2
    31     9    11    1
    32    11    36    1
    33    36    37    1
    34    37    38    2
    35    38    39    1
    36    38    40    1
    37    11    12    2
    38    12    13    1
    39     8     1    1
    40    12     5    1
    41    13    14    1
@<TRIPOS>MOLECULE
*****
 40 41 0 0 0
SMALL
GASTEIGER

@<TRIPOS>ATOM
      1 C          63.3304   85.7727   12.6478 C.3     1  UNL1        0.0197
      2 C          63.9146   85.0702   13.8375 C.3     1  UNL1        0.0013
      3 C          62.6765   85.9794   11.3138 C.3     1  UNL1        0.0064
      4 C          62.4262   87.3694   10.8086 C.3     1  UNL1        0.0148
      5 C          62.8299   88.5527   11.6374 C.3     1  UNL1        0.1061
      6 C          63.4838   88.3459   12.9713 C.2     1  UNL1        0.1696
      7 O          63.7492   89.7171   13.5186 O.2     1  UNL1       -0.2948
      8 C          63.7341   86.9559   13.4766 C.3     1  UNL1        0.1576
      9 C          64.1378   88.1392   14.3054 C.2     1  UNL1        0.1844
     10 O          64.4885   88.1264   15.0212 O.2     1  UNL1       -0.2907
     11 C          63.8876   89.5292   13.8002 C.2     1  UNL1        0.0475
     12 C          63.2336   89.7359   12.4661 C.2     1  UNL1        0.1163
     13 O          62.9833   91.1260   11.9609 O.2     1  UNL1       -0.5096
     14 H          63.2355   91.8651   12.4786 H       1  UNL1        0.2917
     15 C          64.3881   86.7492   14.8106 C.2     1  UNL1        0.1629
     16 O          65.1696   86.6969   14.9588 O.2     1  UNL1       -0.2952
     17 C          63.5472   86.6178   16.0458 C.3     1  UNL1        0.0585
     18 C          63.2222   87.8318   16.8645 C.3     1  UNL1        0.0078
     19 C          63.0313   85.2722   16.4621 C.3     1  UNL1        0.0078
     20 C          63.1296   84.3454   12.2322 C.3     1  UNL1        0.0059
     21 C          64.0083   83.2691   12.7970 C.3     1  UNL1        0.0254
     22 C          62.2968   79.7036   13.1262 C.3     1  UNL1        0.0260
     23 C          62.6253   81.1463   13.3725 C.2     1  UNL1       -0.0478
     24 C          61.8991   81.9090   14.4407 C.3     1  UNL1        0.0260
     25 C          63.6798   81.8264   12.5507 C.2     1  UNL1       -0.0346
     26 C          62.2727   84.7961   10.4850 C.3     1  UNL1        0.0254
     27 C          62.8535   84.6068    9.1150 C.2     1  UNL1       -0.0346
     28 C          62.1149   85.1117    7.9109 C.2     1  UNL1       -0.0478
     29 C          62.6957   84.9224    6.5410 C.3     1  UNL1        0.0260
     30 C          60.7956   85.8059    8.0769 C.3     1  UNL1        0.0260
     31 C          62.5796   89.9427   11.1322 C.3     1  UNL1        0.0395
     32 C          61.3761   90.7056   11.6006 C.2     1  UNL1       -0.0337
     33 C          60.0384   90.4581   10.9687 C.2     1  UNL1       -0.0478
     34 C          58.8349   91.2211   11.4372 C.3     1  UNL1        0.0260
     35 C          59.9042   89.4476    9.8683 C.3     1  UNL1        0.0260
     36 C          64.2912   90.7125   14.6290 C.3     1  UNL1        0.0573
     37 C          65.7433   90.9897   14.8833 C.2     1  UNL1       -0.0297
     38 C          66.4965   91.9262   13.9857 C.2     1  UNL1       -0.0475
     39 C          67.9485   92.2034   14.2400 C.3     1  UNL1        0.0260
     40 C          65.7976   92.5855   12.8337 C.3     1  UNL1        0.0260
@<TRIPOS>BOND
     1    22    23    1
     2    23    24    1
     3    23    25    2
     4    25    21    1
     5    21    20    1
     6    20     1    1
     7     1     2    1
     8     1     3    1
     9     3    26    1
    10    26    27    1
    11    27    28    2
    12    28    29    1
    13    28    30    1
    14     3     4    1
    15     4     5    1
    16     5    31    1
    17    31    32    1
    18    32    33    2
    19    33    34    1
    20    33    35    1
    21     5     6    1
    22     6     7    2
    23     6     8    1
    24     8    15    1
    25    15    16    2
    26    15    17    1
    27    17    18    1
    28    17    19    1
    29     8     9    1
    30     9    10    2
    31     9    11    1
    32    11    36    1
    33    36    37    1
    34    37    38    2
    35    38    39    1
    36    38    40    1
    37    11    12    2
    38    12    13    1
    39     8     1    1
    40    12     5    1
    41    13    14    1
@<TRIPOS>MOLECULE
*****
 40 41 0 0 0
SMALL
GASTEIGER

@<TRIPOS>ATOM
      1 C          63.6562   88.3367   13.3150 C.3     1  UNL1        0.0197
      2 C          64.2655   88.6175   14.6567 C.3     1  UNL1        0.0013
      3 C          63.0830   88.5750   11.9495 C.3     1  UNL1        0.0064
      4 C          62.6175   87.4161   11.1188 C.3     1  UNL1        0.0148
      5 C          62.7252   86.0188   11.6535 C.3     1  UNL1        0.1061
      6 C          63.2984   85.7805   13.0190 C.2     1  UNL1        0.1696
      7 O          63.2578   84.2961   13.2311 O.2     1  UNL1       -0.2948
      8 C          63.7639   86.9394   13.8497 C.3     1  UNL1        0.1576
      9 C          63.8716   85.5421   14.3845 C.2     1  UNL1        0.1844
     10 O          64.1606   85.3208   15.0938 O.2     1  UNL1       -0.2907
     11 C          63.4061   84.3831   13.5538 C.2     1  UNL1        0.0475
     12 C          62.8329   84.6215   12.1882 C.2     1  UNL1        0.1163
     13 O          62.3674   83.4626   11.3575 O.2     1  UNL1       -0.5096
     14 H          62.4346   82.5898   11.6915 H       1  UNL1        0.2917
     15 C          64.3371   86.7010   15.2153 C.2     1  UNL1        0.1629
     16 O          65.0949   86.5304   15.3944 O.2     1  UNL1       -0.2952
     17 C          63.4514   86.7745   16.4237 C.3     1  UNL1        0.0585
     18 C          62.9065   85.5162   17.0318 C.3     1  UNL1        0.0078
     19 C          63.1107   88.1063   17.0240 C.3     1  UNL1        0.0078
     20 C          63.7601   89.8315   13.2462 C.3     1  UNL1        0.0059
     21 C          64.7288   90.5576   14.1318 C.3     1  UNL1        0.0254
     22 C          66.7983   93.9436   14.0854 C.3     1  UNL1        0.0260
     23 C          66.0887   92.7230   14.5920 C.2     1  UNL1       -0.0478
     24 C          66.0294   92.4472   16.0652 C.3     1  UNL1        0.0260
     25 C          65.4384   91.7782   13.6253 C.2     1  UNL1       -0.0346
     26 C          62.9753   89.9724   11.4147 C.3     1  UNL1        0.0254
     27 C          62.1625   90.2436   10.1836 C.2     1  UNL1       -0.0346
     28 C          60.6776   90.0323   10.2035 C.2     1  UNL1       -0.0478
     29 C          59.8648   90.3035    8.9724 C.3     1  UNL1        0.0260
     30 C          60.0055   89.5496   11.4546 C.3     1  UNL1        0.0260
     31 C          62.2597   84.8599   10.8227 C.3     1  UNL1        0.0395
     32 C          62.8682   84.6112    9.4745 C.2     1  UNL1       -0.0337
     33 C          62.2158   85.1665    8.2432 C.2     1  UNL1       -0.0478
     34 C          62.8244   84.9178    6.8949 C.3     1  UNL1        0.0260
     35 C          60.9550   85.9705    8.3602 C.3     1  UNL1        0.0260
     36 C          63.5138   82.9859   14.0885 C.3     1  UNL1        0.0573
     37 C          62.2792   82.2500   14.5182 C.2     1  UNL1       -0.0297
     38 C          61.8551   81.0083   13.7914 C.2     1  UNL1       -0.0475
     39 C          60.6207   80.2725   14.2210 C.3     1  UNL1        0.0260
     40 C          62.6655   80.5024   12.6349 C.3     1  UNL1        0.0260
@<TRIPOS>BOND
     1    22    23    1
     2    23    24    1
     3    23    25    2
     4    25    21    1
     5    21    20    1
     6    20     1    1
     7     1     2    1
     8     1     3    1
     9     3    26    1
    10    26    27    1
    11    27    28    2
    12    28    29    1
    13    28    30    1
    14     3     4    1
    15     4     5    1
    16     5    31    1
    17    31    32    1
    18    32    33    2
    19    33    34    1
    20    33    35    1
    21     5     6    1
    22     6     7    2
    23     6     8    1
    24     8    15    1
    25    15    16    2
    26    15    17    1
    27    17    18    1
    28    17    19    1
    29     8     9    1
    30     9    10    2
    31     9    11    1
    32    11    36    1
    33    36    37    1
    34    37    38    2
    35    38    39    1
    36    38    40    1
    37    11    12    2
    38    12    13    1
    39     8     1    1
    40    12     5    1
    41    13    14    1
@<TRIPOS>MOLECULE
*****
 40 41 0 0 0
SMALL
GASTEIGER

@<TRIPOS>ATOM
      1 C          63.7388   90.5114   12.3180 C.3     1  UNL1        0.0197
      2 C          63.2800   91.3125   11.1357 C.3     1  UNL1        0.0013
      3 C          64.3879   90.1780   13.6285 C.3     1  UNL1        0.0064
      4 C          64.3295   88.7762   14.1593 C.3     1  UNL1        0.0148
      5 C          63.6219   87.7079   13.3795 C.3     1  UNL1        0.1061
      6 C          62.9728   88.0413   12.0691 C.2     1  UNL1        0.1696
      7 O          62.3688   86.7624   11.5697 O.2     1  UNL1       -0.2948
      8 C          63.0312   89.4431   11.5383 C.3     1  UNL1        0.1576
      9 C          62.3236   88.3747   10.7585 C.2     1  UNL1        0.1844
     10 O          61.9525   88.4583   10.0579 O.2     1  UNL1       -0.2907
     11 C          62.2652   86.9730   11.2893 C.2     1  UNL1        0.0475
     12 C          62.9144   86.6396   12.5998 C.2     1  UNL1        0.1163
     13 O          62.8560   85.2378   13.1305 O.2     1  UNL1       -0.5096
     14 H          62.4140   84.5705   12.6435 H       1  UNL1        0.2917
     15 C          62.3820   89.7765   10.2278 C.2     1  UNL1        0.1629
     16 O          62.7468   89.9054    9.5307 O.2     1  UNL1       -0.2952
     17 C          60.8895   89.8978   10.1395 C.3     1  UNL1        0.0585
     18 C          60.1100   90.4293   11.3056 C.3     1  UNL1        0.0078
     19 C          60.1766   89.4875    8.8851 C.3     1  UNL1        0.0078
     20 C          64.2870   91.8580   12.6872 C.3     1  UNL1        0.0059
     21 C          65.0517   92.6594   11.6758 C.3     1  UNL1        0.0254
     22 C          68.4698   92.4772    9.6674 C.3     1  UNL1        0.0260
     23 C          67.1530   92.9789   10.1817 C.2     1  UNL1       -0.0478
     24 C          66.6208   94.3018    9.7160 C.3     1  UNL1        0.0260
     25 C          66.3685   92.1578   11.1615 C.2     1  UNL1       -0.0346
     26 C          65.0955   91.2463   14.4083 C.3     1  UNL1        0.0254
     27 C          66.5447   91.0834   14.7591 C.2     1  UNL1       -0.0346
     28 C          67.4276   92.2902   14.8791 C.2     1  UNL1       -0.0478
     29 C          68.8769   92.1273   15.2299 C.3     1  UNL1        0.0260
     30 C          66.8612   93.6598   14.6482 C.3     1  UNL1        0.0260
     31 C          63.5635   86.3062   13.9103 C.3     1  UNL1        0.0395
     32 C          63.8690   85.1487   13.0065 C.2     1  UNL1       -0.0337
     33 C          64.2308   83.8156   13.5913 C.2     1  UNL1       -0.0478
     34 C          64.5363   82.6581   12.6874 C.3     1  UNL1        0.0260
     35 C          64.2873   83.6400   15.0799 C.3     1  UNL1        0.0260
     36 C          61.5576   85.9047   10.5095 C.3     1  UNL1        0.0573
     37 C          62.2058   85.3087    9.2951 C.2     1  UNL1       -0.0297
     38 C          61.5423   85.4296    7.9553 C.2     1  UNL1       -0.0475
     39 C          62.1905   84.8336    6.7409 C.3     1  UNL1        0.0260
     40 C          60.2307   86.1465    7.8298 C.3     1  UNL1        0.0260
@<TRIPOS>BOND
     1    22    23    1
     2    23    24    1
     3    23    25    2
     4    25    21    1
     5    21    20    1
     6    20     1    1
     7     1     2    1
     8     1     3    1
     9     3    26    1
    10    26    27    1
    11    27    28    2
    12    28    29    1
    13    28    30    1
    14     3     4    1
    15     4     5    1
    16     5    31    1
    17    31    32    1
    18    32    33    2
    19    33    34    1
    20    33    35    1
    21     5     6    1
    22     6     7    2
    23     6     8    1
    24     8    15    1
    25    15    16    2
    26    15    17    1
    27    17    18    1
    28    17    19    1
    29     8     9    1
    30     9    10    2
    31     9    11    1
    32    11    36    1
    33    36    37    1
    34    37    38    2
    35    38    39    1
    36    38    40    1
    37    11    12    2
    38    12    13    1
    39     8     1    1
    40    12     5    1
    41    13    14    1
@<TRIPOS>MOLECULE
*****
 40 41 0 0 0
SMALL
GASTEIGER

@<TRIPOS>ATOM
      1 C          64.0847   91.2207   11.9264 C.3     1  UNL1        0.0197
      2 C          63.5216   91.6575   10.6065 C.3     1  UNL1        0.0013
      3 C          64.8224   91.2745   13.2314 C.3     1  UNL1        0.0064
      4 C          64.8620   90.0673   14.1209 C.3     1  UNL1        0.0148
      5 C          64.1640   88.8063   13.7054 C.3     1  UNL1        0.1061
      6 C          63.4263   88.7525   12.4004 C.2     1  UNL1        0.1696
      7 O          62.8576   87.3679   12.3038 O.2     1  UNL1       -0.2948
      8 C          63.3867   89.9597   11.5109 C.3     1  UNL1        0.1576
      9 C          62.6886   88.6987   11.0954 C.2     1  UNL1        0.1844
     10 O          62.2749   88.5780   10.4247 O.2     1  UNL1       -0.2907
     11 C          62.7283   87.4915   11.9849 C.2     1  UNL1        0.0475
     12 C          63.4660   87.5454   13.2899 C.2     1  UNL1        0.1163
     13 O          63.5056   86.3382   14.1793 O.2     1  UNL1       -0.5096
     14 H          63.0695   85.5505   13.9198 H       1  UNL1        0.2917
     15 C          62.6490   89.9059   10.2059 C.2     1  UNL1        0.1629
     16 O          62.9655   89.8220    9.4791 O.2     1  UNL1       -0.2952
     17 C          61.1531   90.0149   10.1850 C.3     1  UNL1        0.0585
     18 C          60.3865   89.5816    8.9707 C.3     1  UNL1        0.0078
     19 C          60.4239   90.5573   11.3783 C.3     1  UNL1        0.0078
     20 C          64.5872   92.6334   11.8836 C.3     1  UNL1        0.0059
     21 C          65.4783   93.0788   10.7622 C.3     1  UNL1        0.0254
     22 C          67.2270   96.4249    9.5391 C.3     1  UNL1        0.0260
     23 C          66.9376   94.9658    9.7329 C.2     1  UNL1       -0.0478
     24 C          67.8183   93.9349    9.0913 C.3     1  UNL1        0.0260
     25 C          65.7677   94.5378   10.5683 C.2     1  UNL1       -0.0346
     26 C          65.5204   92.5355   13.6469 C.3     1  UNL1        0.0254
     27 C          66.3290   92.5638   14.9100 C.2     1  UNL1       -0.0346
     28 C          67.7864   92.2105   14.8757 C.2     1  UNL1       -0.0478
     29 C          68.5950   92.2388   16.1388 C.3     1  UNL1        0.0260
     30 C          68.4352   91.8288   13.5782 C.3     1  UNL1        0.0260
     31 C          64.2036   87.5991   14.5948 C.3     1  UNL1        0.0395
     32 C          63.5287   87.6318   15.9340 C.2     1  UNL1       -0.0337
     33 C          63.3690   86.3670   16.7244 C.2     1  UNL1       -0.0478
     34 C          62.6941   86.3997   18.0637 C.3     1  UNL1        0.0260
     35 C          63.8841   85.0695   16.1756 C.3     1  UNL1        0.0260
     36 C          62.0303   86.2305   11.5694 C.3     1  UNL1        0.0573
     37 C          60.9978   86.2682   10.4818 C.2     1  UNL1       -0.0297
     38 C          61.3851   85.9476    9.0686 C.2     1  UNL1       -0.0475
     39 C          60.3527   85.9853    7.9811 C.3     1  UNL1        0.0260
     40 C          62.8048   85.5893    8.7429 C.3     1  UNL1        0.0260
@<TRIPOS>BOND
     1    22    23    1
     2    23    24    1
     3    23    25    2
     4    25    21    1
     5    21    20    1
     6    20     1    1
     7     1     2    1
     8     1     3    1
     9     3    26    1
    10    26    27    1
    11    27    28    2
    12    28    29    1
    13    28    30    1
    14     3     4    1
    15     4     5    1
    16     5    31    1
    17    31    32    1
    18    32    33    2
    19    33    34    1
    20    33    35    1
    21     5     6    1
    22     6     7    2
    23     6     8    1
    24     8    15    1
    25    15    16    2
    26    15    17    1
    27    17    18    1
    28    17    19    1
    29     8     9    1
    30     9    10    2
    31     9    11    1
    32    11    36    1
    33    36    37    1
    34    37    38    2
    35    38    39    1
    36    38    40    1
    37    11    12    2
    38    12    13    1
    39     8     1    1
    40    12     5    1
    41    13    14    1
