@<TRIPOS>MOLECULE
*****
 29 31 0 0 0
SMALL
GASTEIGER

@<TRIPOS>ATOM
      1 C          63.8998   86.7878   15.8805 C.ar    1  UNL1        0.0496
      2 C          63.2440   87.7610   16.8148 C.ar    1  UNL1        0.0178
      3 C          63.1393   89.2090   16.4371 C.ar    1  UNL1        0.0388
      4 C          63.6904   89.6836   15.1253 C.ar    1  UNL1        0.1454
      5 C          64.3462   88.7104   14.1910 C.ar    1  UNL1        0.0388
      6 C          64.4509   87.2625   14.5686 C.ar    1  UNL1        0.0178
      7 N          64.0045   85.3399   16.2581 N.pl3   1  UNL1       -0.2966
      8 H          64.3214   85.0868   17.1552 H       1  UNL1        0.1537
      9 N          65.0015   82.6865   11.9032 N.pl3   1  UNL1       -0.3413
     10 C          64.1250   82.9509   13.0914 C.ar    1  UNL1        0.1462
     11 C          62.8706   82.1530   13.2904 C.ar    1  UNL1        0.1327
     12 N          61.9941   82.4174   14.4786 N.ar    1  UNL1       -0.2365
     13 C          62.3721   83.4796   15.4679 C.ar    1  UNL1        0.1333
     14 C          63.6265   84.2776   15.2689 C.ar    1  UNL1        0.1529
     15 N          64.5030   84.0132   14.0806 N.ar    1  UNL1       -0.2132
     16 H          64.7534   81.9893   11.2539 H       1  UNL1        0.1438
     17 H          65.8248   83.2102   11.7726 H       1  UNL1        0.1438
     18 O          63.5857   91.1315   14.7477 O.3     1  UNL1       -0.4535
     19 C          64.5546   91.7228   13.7671 C.ar    1  UNL1        0.1455
     20 C          64.2190   91.7513   12.3054 C.ar    1  UNL1        0.0406
     21 C          65.1879   92.3427   11.3248 C.ar    1  UNL1        0.0403
     22 C          66.4923   92.9055   11.8059 C.ar    1  UNL1        0.1470
     23 C          66.8280   92.8771   13.2676 C.ar    1  UNL1        0.0403
     24 C          65.8591   92.2857   14.2482 C.ar    1  UNL1        0.0406
     25 O          67.4612   93.4969   10.8253 O.3     1  UNL1       -0.4045
     26 C          67.9906   92.6617    9.6974 C.3     1  UNL1        0.5753
     27 F          68.5199   91.8265    8.5695 F       1  UNL1       -0.1328
     28 F          67.5305   93.6973    8.7146 F       1  UNL1       -0.1328
     29 F          68.4506   91.6261   10.6802 F       1  UNL1       -0.1328
@<TRIPOS>BOND
     1     9    10    1
     2    10    11   ar
     3    11    12   ar
     4    12    13   ar
     5    13    14   ar
     6    14     7    1
     7     7     1    1
     8     1     2   ar
     9     2     3   ar
    10     3     4   ar
    11     4    18    1
    12    18    19    1
    13    19    20   ar
    14    20    21   ar
    15    21    22   ar
    16    22    25    1
    17    25    26    1
    18    26    27    1
    19    26    28    1
    20    26    29    1
    21    22    23   ar
    22    23    24   ar
    23     4     5   ar
    24     5     6   ar
    25    14    15   ar
    26    15    10   ar
    27     6     1   ar
    28    24    19   ar
    29     9    16    1
    30     9    17    1
    31     7     8    1
@<TRIPOS>MOLECULE
*****
 29 31 0 0 0
SMALL
GASTEIGER

@<TRIPOS>ATOM
      1 C          63.9163   86.3411   15.9338 C.ar    1  UNL1        0.0496
      2 C          64.4904   86.9154   14.6726 C.ar    1  UNL1        0.0178
      3 C          64.3675   88.3841   14.3935 C.ar    1  UNL1        0.0388
      4 C          63.6706   89.2784   15.3756 C.ar    1  UNL1        0.1454
      5 C          63.0965   88.7041   16.6368 C.ar    1  UNL1        0.0388
      6 C          63.2194   87.2355   16.9159 C.ar    1  UNL1        0.0178
      7 N          64.0392   84.8724   16.2130 N.pl3   1  UNL1       -0.2966
      8 H          64.3184   84.5625   17.1047 H       1  UNL1        0.1537
      9 N          61.0973   81.0198   14.3413 N.pl3   1  UNL1       -0.3413
     10 C          62.2656   81.9496   14.1976 C.ar    1  UNL1        0.1462
     11 C          63.1312   81.8829   12.9745 C.ar    1  UNL1        0.1327
     12 N          64.2995   82.8126   12.8308 N.ar    1  UNL1       -0.2365
     13 C          64.6022   83.8091   13.9102 C.ar    1  UNL1        0.1333
     14 C          63.7365   83.8759   15.1334 C.ar    1  UNL1        0.1529
     15 N          62.5682   82.9461   15.2771 N.ar    1  UNL1       -0.2132
     16 H          60.8986   80.3658   13.6328 H       1  UNL1        0.1438
     17 H          60.5292   81.0637   15.1442 H       1  UNL1        0.1438
     18 O          63.5477   90.7471   15.0964 O.3     1  UNL1       -0.4535
     19 C          64.4784   91.4057   14.1217 C.ar    1  UNL1        0.1455
     20 C          65.7936   91.9521   14.5925 C.ar    1  UNL1        0.0406
     21 C          66.7243   92.6107   13.6178 C.ar    1  UNL1        0.0403
     22 C          66.3398   92.7229   12.1723 C.ar    1  UNL1        0.1470
     23 C          65.0245   92.1764   11.7014 C.ar    1  UNL1        0.0403
     24 C          64.0938   91.5178   12.6761 C.ar    1  UNL1        0.0406
     25 O          67.2704   93.3815   11.1975 O.3     1  UNL1       -0.4045
     26 C          67.7964   92.6095   10.0240 C.3     1  UNL1        0.5753
     27 F          68.3224   91.8375    8.8504 F       1  UNL1       -0.1328
     28 F          67.1409   93.5829    9.0898 F       1  UNL1       -0.1328
     29 F          68.4519   91.6360   10.9581 F       1  UNL1       -0.1328
@<TRIPOS>BOND
     1     9    10    1
     2    10    11   ar
     3    11    12   ar
     4    12    13   ar
     5    13    14   ar
     6    14     7    1
     7     7     1    1
     8     1     2   ar
     9     2     3   ar
    10     3     4   ar
    11     4    18    1
    12    18    19    1
    13    19    20   ar
    14    20    21   ar
    15    21    22   ar
    16    22    25    1
    17    25    26    1
    18    26    27    1
    19    26    28    1
    20    26    29    1
    21    22    23   ar
    22    23    24   ar
    23     4     5   ar
    24     5     6   ar
    25    14    15   ar
    26    15    10   ar
    27     6     1   ar
    28    24    19   ar
    29     9    16    1
    30     9    17    1
    31     7     8    1
@<TRIPOS>MOLECULE
*****
 29 31 0 0 0
SMALL
GASTEIGER

@<TRIPOS>ATOM
      1 C          63.8222   91.3393   11.5107 C.ar    1  UNL1        0.0496
      2 C          63.1096   91.2102   10.1971 C.ar    1  UNL1        0.0178
      3 C          62.3171   89.9736    9.8922 C.ar    1  UNL1        0.0388
      4 C          62.2372   88.8663   10.9008 C.ar    1  UNL1        0.1454
      5 C          62.9498   88.9955   12.2144 C.ar    1  UNL1        0.0388
      6 C          63.7422   90.2319   12.5194 C.ar    1  UNL1        0.0178
      7 N          64.6147   92.5758   11.8157 N.pl3   1  UNL1       -0.2966
      8 H          64.3714   93.4324   11.3959 H       1  UNL1        0.1537
      9 N          66.5413   93.0185   16.6211 N.pl3   1  UNL1       -0.3413
     10 C          66.7412   92.7285   15.1630 C.ar    1  UNL1        0.1462
     11 C          68.1041   92.3699   14.6496 C.ar    1  UNL1        0.1327
     12 N          68.3040   92.0799   13.1915 N.ar    1  UNL1       -0.2365
     13 C          67.1409   92.1485   12.2469 C.ar    1  UNL1        0.1333
     14 C          65.7779   92.5072   12.7603 C.ar    1  UNL1        0.1529
     15 N          65.5780   92.7972   14.2184 N.ar    1  UNL1       -0.2132
     16 H          67.3047   92.9735   17.2411 H       1  UNL1        0.1438
     17 H          65.6467   93.2539   16.9581 H       1  UNL1        0.1438
     18 O          61.4447   87.6298   10.5959 O.3     1  UNL1       -0.4535
     19 C          62.1115   86.2864   10.6209 C.ar    1  UNL1        0.1455
     20 C          62.2210   85.5274   11.9100 C.ar    1  UNL1        0.0406
     21 C          62.8878   84.1840   11.9351 C.ar    1  UNL1        0.0403
     22 C          63.4452   83.5996   10.6710 C.ar    1  UNL1        0.1470
     23 C          63.3357   84.3587    9.3818 C.ar    1  UNL1        0.0403
     24 C          62.6689   85.7021    9.3568 C.ar    1  UNL1        0.0406
     25 O          64.1120   82.2562   10.6961 O.3     1  UNL1       -0.4045
     26 C          63.4058   81.0795   11.3015 C.3     1  UNL1        0.5753
     27 F          62.6995   79.9028   11.9070 F       1  UNL1       -0.1328
     28 F          63.9312   81.4600   12.6539 F       1  UNL1       -0.1328
     29 F          62.8803   80.6990    9.9491 F       1  UNL1       -0.1328
@<TRIPOS>BOND
     1     9    10    1
     2    10    11   ar
     3    11    12   ar
     4    12    13   ar
     5    13    14   ar
     6    14     7    1
     7     7     1    1
     8     1     2   ar
     9     2     3   ar
    10     3     4   ar
    11     4    18    1
    12    18    19    1
    13    19    20   ar
    14    20    21   ar
    15    21    22   ar
    16    22    25    1
    17    25    26    1
    18    26    27    1
    19    26    28    1
    20    26    29    1
    21    22    23   ar
    22    23    24   ar
    23     4     5   ar
    24     5     6   ar
    25    14    15   ar
    26    15    10   ar
    27     6     1   ar
    28    24    19   ar
    29     9    16    1
    30     9    17    1
    31     7     8    1
@<TRIPOS>MOLECULE
*****
 29 31 0 0 0
SMALL
GASTEIGER

@<TRIPOS>ATOM
      1 C          64.2013   91.6179   11.8134 C.ar    1  UNL1        0.0496
      2 C          63.5775   91.6249   10.4492 C.ar    1  UNL1        0.0178
      3 C          62.6850   90.4957   10.0268 C.ar    1  UNL1        0.0388
      4 C          62.4164   89.3595   10.9685 C.ar    1  UNL1        0.1454
      5 C          63.0402   89.3524   12.3326 C.ar    1  UNL1        0.0388
      6 C          63.9326   90.4816   12.7550 C.ar    1  UNL1        0.0178
      7 N          65.0937   92.7471   12.2358 N.pl3   1  UNL1       -0.2966
      8 H          65.0697   93.0724   13.1647 H       1  UNL1        0.1537
      9 N          68.8612   92.3112    8.6839 N.pl3   1  UNL1       -0.3413
     10 C          67.9064   93.1627    9.4670 C.ar    1  UNL1        0.1462
     11 C          67.8805   94.6477    9.2574 C.ar    1  UNL1        0.1327
     12 N          66.9257   95.4992   10.0405 N.ar    1  UNL1       -0.2365
     13 C          65.9967   94.8657   11.0333 C.ar    1  UNL1        0.1333
     14 C          66.0226   93.3807   11.2430 C.ar    1  UNL1        0.1529
     15 N          66.9774   92.5292   10.4598 N.ar    1  UNL1       -0.2132
     16 H          69.4709   92.7270    8.0323 H       1  UNL1        0.1438
     17 H          68.8781   91.3365    8.8215 H       1  UNL1        0.1438
     18 O          61.5240   88.2303   10.5460 O.3     1  UNL1       -0.4535
     19 C          62.0583   86.8295   10.4985 C.ar    1  UNL1        0.1455
     20 C          62.0561   85.9835   11.7372 C.ar    1  UNL1        0.0406
     21 C          62.5904   84.5827   11.6897 C.ar    1  UNL1        0.0403
     22 C          63.1270   84.0279   10.4035 C.ar    1  UNL1        0.1470
     23 C          63.1292   84.8738    9.1648 C.ar    1  UNL1        0.0403
     24 C          62.5949   86.2746    9.2123 C.ar    1  UNL1        0.0406
     25 O          63.6613   82.6271   10.3560 O.3     1  UNL1       -0.4045
     26 C          63.7531   81.8163   11.6147 C.3     1  UNL1        0.5753
     27 F          63.8450   81.0056   12.8733 F       1  UNL1       -0.1328
     28 F          62.4318   81.1796   11.3010 F       1  UNL1       -0.1328
     29 F          65.0745   82.4530   11.9283 F       1  UNL1       -0.1328
@<TRIPOS>BOND
     1     9    10    1
     2    10    11   ar
     3    11    12   ar
     4    12    13   ar
     5    13    14   ar
     6    14     7    1
     7     7     1    1
     8     1     2   ar
     9     2     3   ar
    10     3     4   ar
    11     4    18    1
    12    18    19    1
    13    19    20   ar
    14    20    21   ar
    15    21    22   ar
    16    22    25    1
    17    25    26    1
    18    26    27    1
    19    26    28    1
    20    26    29    1
    21    22    23   ar
    22    23    24   ar
    23     4     5   ar
    24     5     6   ar
    25    14    15   ar
    26    15    10   ar
    27     6     1   ar
    28    24    19   ar
    29     9    16    1
    30     9    17    1
    31     7     8    1
@<TRIPOS>MOLECULE
*****
 29 31 0 0 0
SMALL
GASTEIGER

@<TRIPOS>ATOM
      1 C          64.2141   91.6060   11.8562 C.ar    1  UNL1        0.0496
      2 C          63.9206   90.4826   12.8059 C.ar    1  UNL1        0.0178
      3 C          63.0329   89.3516   12.3783 C.ar    1  UNL1        0.0388
      4 C          62.4387   89.3439   11.0011 C.ar    1  UNL1        0.1454
      5 C          62.7322   90.4673   10.0514 C.ar    1  UNL1        0.0388
      6 C          63.6199   91.5983   10.4789 C.ar    1  UNL1        0.0178
      7 N          65.1018   92.7370   12.2838 N.pl3   1  UNL1       -0.2966
      8 H          65.0929   93.0431   13.2195 H       1  UNL1        0.1537
      9 N          69.4182   92.6964    9.3913 N.pl3   1  UNL1       -0.3413
     10 C          68.1612   93.3813    9.8395 C.ar    1  UNL1        0.1462
     11 C          67.8055   94.7308    9.2898 C.ar    1  UNL1        0.1327
     12 N          66.5486   95.4157    9.7380 N.ar    1  UNL1       -0.2365
     13 C          65.6473   94.7511   10.7360 C.ar    1  UNL1        0.1333
     14 C          66.0030   93.4016   11.2858 C.ar    1  UNL1        0.1529
     15 N          67.2600   92.7167   10.8375 N.ar    1  UNL1       -0.2132
     16 H          70.0097   93.1326    8.7362 H       1  UNL1        0.1438
     17 H          69.6517   91.8107    9.7521 H       1  UNL1        0.1438
     18 O          61.5511   88.2129   10.5735 O.3     1  UNL1       -0.4535
     19 C          62.0911   86.8145   10.5203 C.ar    1  UNL1        0.1455
     20 C          62.5900   86.2520    9.2224 C.ar    1  UNL1        0.0406
     21 C          63.1300   84.8536    9.1692 C.ar    1  UNL1        0.0403
     22 C          63.1711   84.0177   10.4140 C.ar    1  UNL1        0.1470
     23 C          62.6722   84.5802   11.7120 C.ar    1  UNL1        0.0403
     24 C          62.1322   85.9786   11.7652 C.ar    1  UNL1        0.0406
     25 O          63.7111   82.6193   10.3608 O.3     1  UNL1       -0.4045
     26 C          63.7720   81.7908   11.6098 C.3     1  UNL1        0.5753
     27 F          63.8328   80.9623   12.8587 F       1  UNL1       -0.1328
     28 F          65.0781   82.4331   11.9722 F       1  UNL1       -0.1328
     29 F          62.4658   81.1485   11.2473 F       1  UNL1       -0.1328
@<TRIPOS>BOND
     1     9    10    1
     2    10    11   ar
     3    11    12   ar
     4    12    13   ar
     5    13    14   ar
     6    14     7    1
     7     7     1    1
     8     1     2   ar
     9     2     3   ar
    10     3     4   ar
    11     4    18    1
    12    18    19    1
    13    19    20   ar
    14    20    21   ar
    15    21    22   ar
    16    22    25    1
    17    25    26    1
    18    26    27    1
    19    26    28    1
    20    26    29    1
    21    22    23   ar
    22    23    24   ar
    23     4     5   ar
    24     5     6   ar
    25    14    15   ar
    26    15    10   ar
    27     6     1   ar
    28    24    19   ar
    29     9    16    1
    30     9    17    1
    31     7     8    1
@<TRIPOS>MOLECULE
*****
 29 31 0 0 0
SMALL
GASTEIGER

@<TRIPOS>ATOM
      1 C          63.7796   85.6479   15.8729 C.ar    1  UNL1        0.0496
      2 C          64.3179   86.4970   14.7597 C.ar    1  UNL1        0.0178
      3 C          64.2015   87.9908   14.8322 C.ar    1  UNL1        0.0388
      4 C          63.5467   88.6353   16.0179 C.ar    1  UNL1        0.1454
      5 C          63.0084   87.7862   17.1311 C.ar    1  UNL1        0.0388
      6 C          63.1248   86.2925   17.0586 C.ar    1  UNL1        0.0178
      7 N          63.8960   84.1542   15.8005 N.pl3   1  UNL1       -0.2966
      8 H          64.2215   83.6475   16.5793 H       1  UNL1        0.1537
      9 N          64.5221   83.3651   10.7029 N.pl3   1  UNL1       -0.3413
     10 C          63.8296   83.0380   11.9927 C.ar    1  UNL1        0.1462
     11 C          62.7577   81.9892   12.0234 C.ar    1  UNL1        0.1327
     12 N          62.0652   81.6621   13.3131 N.ar    1  UNL1       -0.2365
     13 C          62.4446   82.3837   14.5721 C.ar    1  UNL1        0.1333
     14 C          63.5166   83.4325   14.5414 C.ar    1  UNL1        0.1529
     15 N          64.2091   83.7596   13.2517 N.ar    1  UNL1       -0.2132
     16 H          64.2731   82.8915    9.8766 H       1  UNL1        0.1438
     17 H          65.2257   84.0535   10.6828 H       1  UNL1        0.1438
     18 O          63.4303   90.1290   16.0903 O.3     1  UNL1       -0.4535
     19 C          64.2607   90.9908   15.1859 C.ar    1  UNL1        0.1455
     20 C          65.2842   91.9204   15.7675 C.ar    1  UNL1        0.0406
     21 C          66.1145   92.7821   14.8631 C.ar    1  UNL1        0.0403
     22 C          65.9213   92.7143   13.3771 C.ar    1  UNL1        0.1470
     23 C          64.8978   91.7847   12.7955 C.ar    1  UNL1        0.0403
     24 C          64.0674   90.9229   13.6999 C.ar    1  UNL1        0.0406
     25 O          66.7517   93.5760   12.4728 O.3     1  UNL1       -0.4045
     26 C          66.5445   93.5231   10.9881 C.3     1  UNL1        0.5753
     27 F          66.3373   93.4701    9.5035 F       1  UNL1       -0.1328
     28 F          67.5407   92.4061   10.8889 F       1  UNL1       -0.1328
     29 F          65.5483   94.6400   11.0873 F       1  UNL1       -0.1328
@<TRIPOS>BOND
     1     9    10    1
     2    10    11   ar
     3    11    12   ar
     4    12    13   ar
     5    13    14   ar
     6    14     7    1
     7     7     1    1
     8     1     2   ar
     9     2     3   ar
    10     3     4   ar
    11     4    18    1
    12    18    19    1
    13    19    20   ar
    14    20    21   ar
    15    21    22   ar
    16    22    25    1
    17    25    26    1
    18    26    27    1
    19    26    28    1
    20    26    29    1
    21    22    23   ar
    22    23    24   ar
    23     4     5   ar
    24     5     6   ar
    25    14    15   ar
    26    15    10   ar
    27     6     1   ar
    28    24    19   ar
    29     9    16    1
    30     9    17    1
    31     7     8    1
@<TRIPOS>MOLECULE
*****
 29 31 0 0 0
SMALL
GASTEIGER

@<TRIPOS>ATOM
      1 C          62.0019   86.8195   10.8556 C.ar    1  UNL1        0.0496
      2 C          61.5707   87.7374    9.7504 C.ar    1  UNL1        0.0178
      3 C          61.9087   89.1976    9.8134 C.ar    1  UNL1        0.0388
      4 C          62.6778   89.7397   10.9815 C.ar    1  UNL1        0.1454
      5 C          63.1089   88.8217   12.0867 C.ar    1  UNL1        0.0388
      6 C          62.7710   87.3617   12.0238 C.ar    1  UNL1        0.0178
      7 N          61.6640   85.3594   10.7926 N.pl3   1  UNL1       -0.2966
      8 H          60.7948   85.0705   10.4316 H       1  UNL1        0.1537
      9 N          63.5503   82.3922   14.6186 N.pl3   1  UNL1       -0.3413
     10 C          63.5934   82.8561   13.1927 C.ar    1  UNL1        0.1462
     11 C          64.6228   82.3001   12.2540 C.ar    1  UNL1        0.1327
     12 N          64.6659   82.7639   10.8282 N.ar    1  UNL1       -0.2365
     13 C          63.6797   83.7837   10.3411 C.ar    1  UNL1        0.1333
     14 C          62.6503   84.3396   11.2798 C.ar    1  UNL1        0.1529
     15 N          62.6071   83.8758   12.7056 N.ar    1  UNL1       -0.2132
     16 H          64.1976   81.7229   14.9383 H       1  UNL1        0.1438
     17 H          62.8746   82.7571   15.2347 H       1  UNL1        0.1438
     18 O          63.0157   91.1997   11.0444 O.3     1  UNL1       -0.4535
     19 C          64.2347   91.6560   11.7900 C.ar    1  UNL1        0.1455
     20 C          65.3778   92.2815   11.0472 C.ar    1  UNL1        0.0406
     21 C          66.5968   92.7377   11.7928 C.ar    1  UNL1        0.0403
     22 C          66.6726   92.5685   13.2812 C.ar    1  UNL1        0.1470
     23 C          65.5294   91.9430   14.0242 C.ar    1  UNL1        0.0403
     24 C          64.3104   91.4867   13.2786 C.ar    1  UNL1        0.0406
     25 O          67.8916   93.0247   14.0268 O.3     1  UNL1       -0.4045
     26 C          68.1176   92.5767   15.4404 C.3     1  UNL1        0.5753
     27 F          68.3436   92.1287   16.8539 F       1  UNL1       -0.1328
     28 F          68.0471   91.1452   14.9979 F       1  UNL1       -0.1328
     29 F          68.1882   94.0082   15.8828 F       1  UNL1       -0.1328
@<TRIPOS>BOND
     1     9    10    1
     2    10    11   ar
     3    11    12   ar
     4    12    13   ar
     5    13    14   ar
     6    14     7    1
     7     7     1    1
     8     1     2   ar
     9     2     3   ar
    10     3     4   ar
    11     4    18    1
    12    18    19    1
    13    19    20   ar
    14    20    21   ar
    15    21    22   ar
    16    22    25    1
    17    25    26    1
    18    26    27    1
    19    26    28    1
    20    26    29    1
    21    22    23   ar
    22    23    24   ar
    23     4     5   ar
    24     5     6   ar
    25    14    15   ar
    26    15    10   ar
    27     6     1   ar
    28    24    19   ar
    29     9    16    1
    30     9    17    1
    31     7     8    1
@<TRIPOS>MOLECULE
*****
 29 31 0 0 0
SMALL
GASTEIGER

@<TRIPOS>ATOM
      1 C          63.5659   89.1271   15.8173 C.ar    1  UNL1        0.0496
      2 C          64.2786   88.4166   14.7050 C.ar    1  UNL1        0.0178
      3 C          64.4081   86.9224   14.7311 C.ar    1  UNL1        0.0388
      4 C          63.8248   86.1388   15.8693 C.ar    1  UNL1        0.1454
      5 C          63.1120   86.8493   16.9816 C.ar    1  UNL1        0.0388
      6 C          62.9826   88.3434   16.9556 C.ar    1  UNL1        0.0178
      7 N          63.4364   90.6213   15.7912 N.pl3   1  UNL1       -0.2966
      8 H          62.6905   91.0590   16.2616 H       1  UNL1        0.1537
      9 N          67.5266   93.8259   15.8183 N.pl3   1  UNL1       -0.3413
     10 C          66.4885   93.0509   15.0621 C.ar    1  UNL1        0.1462
     11 C          66.4575   93.1031   13.5634 C.ar    1  UNL1        0.1327
     12 N          65.4195   92.3280   12.8072 N.ar    1  UNL1       -0.2365
     13 C          64.4124   91.5008   13.5498 C.ar    1  UNL1        0.1333
     14 C          64.4435   91.4486   15.0486 C.ar    1  UNL1        0.1529
     15 N          65.4815   92.2236   15.8047 N.ar    1  UNL1       -0.2132
     16 H          68.1875   94.3689   15.3309 H       1  UNL1        0.1438
     17 H          67.5469   93.7916   16.8020 H       1  UNL1        0.1438
     18 O          63.9542   84.6446   15.8953 O.3     1  UNL1       -0.4535
     19 C          63.7280   83.8503   14.6432 C.ar    1  UNL1        0.1455
     20 C          62.4425   83.1015   14.4520 C.ar    1  UNL1        0.0406
     21 C          62.2163   82.3071   13.1999 C.ar    1  UNL1        0.0403
     22 C          63.2756   82.2616   12.1389 C.ar    1  UNL1        0.1470
     23 C          64.5613   83.0104   12.3301 C.ar    1  UNL1        0.0403
     24 C          64.7875   83.8048   13.5822 C.ar    1  UNL1        0.0406
     25 O          63.0494   81.4673   10.8868 O.3     1  UNL1       -0.4045
     26 C          62.8667   79.9805   10.9645 C.3     1  UNL1        0.5753
     27 F          62.6840   78.4937   11.0422 F       1  UNL1       -0.1328
     28 F          63.0068   80.0413   12.4567 F       1  UNL1       -0.1328
     29 F          62.7267   79.9197    9.4723 F       1  UNL1       -0.1328
@<TRIPOS>BOND
     1     9    10    1
     2    10    11   ar
     3    11    12   ar
     4    12    13   ar
     5    13    14   ar
     6    14     7    1
     7     7     1    1
     8     1     2   ar
     9     2     3   ar
    10     3     4   ar
    11     4    18    1
    12    18    19    1
    13    19    20   ar
    14    20    21   ar
    15    21    22   ar
    16    22    25    1
    17    25    26    1
    18    26    27    1
    19    26    28    1
    20    26    29    1
    21    22    23   ar
    22    23    24   ar
    23     4     5   ar
    24     5     6   ar
    25    14    15   ar
    26    15    10   ar
    27     6     1   ar
    28    24    19   ar
    29     9    16    1
    30     9    17    1
    31     7     8    1
@<TRIPOS>MOLECULE
*****
 29 31 0 0 0
SMALL
GASTEIGER

@<TRIPOS>ATOM
      1 C          62.4092   86.6837   11.4081 C.ar    1  UNL1        0.0496
      2 C          61.8394   87.8712   10.6905 C.ar    1  UNL1        0.0178
      3 C          62.1431   89.2577   11.1760 C.ar    1  UNL1        0.0388
      4 C          63.0165   89.4565   12.3790 C.ar    1  UNL1        0.1454
      5 C          63.5864   88.2690   13.0967 C.ar    1  UNL1        0.0388
      6 C          63.2827   86.8826   12.6112 C.ar    1  UNL1        0.0178
      7 N          62.1056   85.2973   10.9227 N.pl3   1  UNL1       -0.2966
      8 H          61.4472   85.1607   10.2036 H       1  UNL1        0.1537
      9 N          62.6664   81.9309   14.8409 N.pl3   1  UNL1       -0.3413
     10 C          63.0854   82.4358   13.4920 C.ar    1  UNL1        0.1462
     11 C          64.2038   81.7624   12.7534 C.ar    1  UNL1        0.1327
     12 N          64.6228   82.2673   11.4045 N.ar    1  UNL1       -0.2365
     13 C          63.9234   83.4455   10.7942 C.ar    1  UNL1        0.1333
     14 C          62.8050   84.1189   11.5329 C.ar    1  UNL1        0.1529
     15 N          62.3860   83.6141   12.8818 N.ar    1  UNL1       -0.2132
     16 H          63.1255   81.1575   15.2415 H       1  UNL1        0.1438
     17 H          61.9324   82.3729   15.3258 H       1  UNL1        0.1438
     18 O          63.3202   90.8429   12.8645 O.3     1  UNL1       -0.4535
     19 C          64.4564   91.6160   12.2634 C.ar    1  UNL1        0.1455
     20 C          64.3693   92.0966   10.8452 C.ar    1  UNL1        0.0406
     21 C          65.5055   92.8697   10.2441 C.ar    1  UNL1        0.0403
     22 C          66.7289   93.1621   11.0612 C.ar    1  UNL1        0.1470
     23 C          66.8161   92.6815   12.4795 C.ar    1  UNL1        0.0403
     24 C          65.6799   91.9084   13.0806 C.ar    1  UNL1        0.0406
     25 O          67.8651   93.9352   10.4601 O.3     1  UNL1       -0.4045
     26 C          67.6698   94.6738    9.1692 C.3     1  UNL1        0.5753
     27 F          67.4745   95.4123    7.8784 F       1  UNL1       -0.1328
     28 F          68.0726   93.4468    8.4062 F       1  UNL1       -0.1328
     29 F          67.2671   95.9008    9.9322 F       1  UNL1       -0.1328
@<TRIPOS>BOND
     1     9    10    1
     2    10    11   ar
     3    11    12   ar
     4    12    13   ar
     5    13    14   ar
     6    14     7    1
     7     7     1    1
     8     1     2   ar
     9     2     3   ar
    10     3     4   ar
    11     4    18    1
    12    18    19    1
    13    19    20   ar
    14    20    21   ar
    15    21    22   ar
    16    22    25    1
    17    25    26    1
    18    26    27    1
    19    26    28    1
    20    26    29    1
    21    22    23   ar
    22    23    24   ar
    23     4     5   ar
    24     5     6   ar
    25    14    15   ar
    26    15    10   ar
    27     6     1   ar
    28    24    19   ar
    29     9    16    1
    30     9    17    1
    31     7     8    1
