@<TRIPOS>MOLECULE
*****
 34 37 0 0 0
SMALL
GASTEIGER

@<TRIPOS>ATOM
      1 C          62.6145   88.7167   11.4919 C.3     1  UNL1        0.0206
      2 C          63.4262   89.2597   12.6305 C.3     1  UNL1        0.0956
      3 C          63.7731   90.7183   12.6756 C.3     1  UNL1        0.0900
      4 N          64.5848   91.2613   13.8142 N.3     1  UNL1       -0.2700
      5 C          65.0497   90.3457   14.9075 C.3     1  UNL1        0.0915
      6 C          64.7028   88.8871   14.8624 C.3     1  UNL1        0.1131
      7 N          63.8911   88.3441   13.7238 N.3     1  UNL1       -0.1541
      8 S          63.5442   86.8854   13.6787 S.O2    1  UNL1        0.0633
      9 O          63.9467   86.7452   15.1168 O.2     1  UNL1       -0.1528
     10 O          63.1416   87.0256   12.2406 O.2     1  UNL1       -0.1528
     11 C          63.1974   85.4268   13.6336 C.ar    1  UNL1        0.1222
     12 C          62.9142   84.7635   12.3183 C.ar    1  UNL1        0.0197
     13 C          62.5674   83.3048   12.2733 C.ar    1  UNL1       -0.0004
     14 C          62.5037   82.5094   13.5434 C.ar    1  UNL1        0.0099
     15 C          62.7868   83.1727   14.8587 C.ar    1  UNL1       -0.0004
     16 C          63.1336   84.6313   14.9038 C.ar    1  UNL1        0.0197
     17 C          62.1568   81.0508   13.4984 C.3     1  UNL1        0.1945
     18 C          61.8100   79.5921   13.4532 C.3     1  UNL1        0.0428
     19 O          61.1945   81.2446   14.6325 O.3     1  UNL1       -0.3751
     20 H          61.1985   82.1757   14.9045 H       1  UNL1        0.2110
     21 C          63.1192   80.8570   12.3642 C.3     1  UNL1        0.4230
     22 F          64.0815   80.6633   11.2300 F       1  UNL1       -0.1673
     23 F          62.2396   80.7745   11.1519 F       1  UNL1       -0.1673
     24 F          64.2657   80.8937   13.3307 F       1  UNL1       -0.1673
     25 C          64.9317   92.7200   13.8593 C.3     1  UNL1        0.0762
     26 C          66.3682   93.1478   13.9177 C.3     1  UNL1        0.0337
     27 C          67.7088   93.5109   14.4840 C.3     1  UNL1        0.0058
     28 C          66.5912   93.1101   15.4005 C.3     1  UNL1        0.0058
     29 C          66.6441   93.3342   12.4551 C.ar    1  UNL1       -0.0184
     30 C          66.2443   94.6090   11.7729 C.ar    1  UNL1        0.0164
     31 C          66.5202   94.7953   10.3104 C.ar    1  UNL1        0.0986
     32 N          67.1959   93.7071    9.5300 N.ar    1  UNL1       -0.2423
     33 C          67.5956   92.4323   10.2121 C.ar    1  UNL1        0.0986
     34 C          67.3197   92.2459   11.6747 C.ar    1  UNL1        0.0164
@<TRIPOS>BOND
     1     2     1    1
     2     2     3    1
     3     3     4    1
     4     4    25    1
     5    25    26    1
     6    26    29    1
     7    29    30   ar
     8    30    31   ar
     9    31    32   ar
    10    32    33   ar
    11    33    34   ar
    12    26    27    1
    13    27    28    1
    14     4     5    1
    15     5     6    1
    16     6     7    1
    17     7     8    1
    18     8     9    2
    19     8    10    2
    20     8    11    1
    21    11    12   ar
    22    12    13   ar
    23    13    14   ar
    24    14    17    1
    25    17    18    1
    26    17    19    1
    27    17    21    1
    28    21    22    1
    29    21    23    1
    30    21    24    1
    31    14    15   ar
    32    15    16   ar
    33     7     2    1
    34    16    11   ar
    35    28    26    1
    36    34    29   ar
    37    19    20    1
@<TRIPOS>MOLECULE
*****
 34 37 0 0 0
SMALL
GASTEIGER

@<TRIPOS>ATOM
      1 C          62.7114   88.6057   11.2588 C.3     1  UNL1        0.0206
      2 C          63.4393   89.0355   12.4979 C.3     1  UNL1        0.0956
      3 C          63.6962   90.4917   12.7498 C.3     1  UNL1        0.0900
      4 N          64.4241   90.9216   13.9889 N.3     1  UNL1       -0.2700
      5 C          64.8950   89.8952   14.9762 C.3     1  UNL1        0.0915
      6 C          64.6381   88.4391   14.7244 C.3     1  UNL1        0.1131
      7 N          63.9102   88.0092   13.4852 N.3     1  UNL1       -0.1541
      8 S          63.6533   86.5529   13.2334 S.O2    1  UNL1        0.0633
      9 O          62.6864   86.9119   12.1443 O.2     1  UNL1       -0.1528
     10 O          64.6203   86.1940   14.3225 O.2     1  UNL1       -0.1528
     11 C          63.3964   85.0967   12.9816 C.ar    1  UNL1        0.1222
     12 C          63.7946   84.0766   14.0067 C.ar    1  UNL1        0.0197
     13 C          63.5376   82.6204   13.7548 C.ar    1  UNL1       -0.0004
     14 C          62.8825   82.1843   12.4778 C.ar    1  UNL1        0.0099
     15 C          62.4843   83.2044   11.4527 C.ar    1  UNL1       -0.0004
     16 C          62.7413   84.6606   11.7046 C.ar    1  UNL1        0.0197
     17 C          62.6256   80.7281   12.2260 C.3     1  UNL1        0.1945
     18 C          62.3686   79.2718   11.9742 C.3     1  UNL1        0.0428
     19 O          63.2905   80.8425   10.8863 O.3     1  UNL1       -0.3751
     20 H          63.5904   81.7550   10.7511 H       1  UNL1        0.2110
     21 C          61.9607   80.6137   13.5657 C.3     1  UNL1        0.4230
     22 F          61.2957   80.4994   14.9054 F       1  UNL1       -0.1673
     23 F          60.6731   81.3645   13.3972 F       1  UNL1       -0.1673
     24 F          63.1219   79.8114   14.0736 F       1  UNL1       -0.1673
     25 C          64.6810   92.3779   14.2407 C.3     1  UNL1        0.0762
     26 C          66.0838   92.8672   14.4473 C.3     1  UNL1        0.0337
     27 C          67.3480   93.2678   15.1482 C.3     1  UNL1        0.0058
     28 C          66.1720   92.7818   15.9423 C.3     1  UNL1        0.0058
     29 C          66.4828   93.1225   13.0241 C.ar    1  UNL1       -0.0184
     30 C          67.2166   92.0677   12.2501 C.ar    1  UNL1        0.0164
     31 C          67.6156   92.3231   10.8269 C.ar    1  UNL1        0.0986
     32 N          67.2809   93.6331   10.1777 N.ar    1  UNL1       -0.2423
     33 C          66.5472   94.6880   10.9516 C.ar    1  UNL1        0.0986
     34 C          66.1481   94.4326   12.3748 C.ar    1  UNL1        0.0164
@<TRIPOS>BOND
     1     2     1    1
     2     2     3    1
     3     3     4    1
     4     4    25    1
     5    25    26    1
     6    26    29    1
     7    29    30   ar
     8    30    31   ar
     9    31    32   ar
    10    32    33   ar
    11    33    34   ar
    12    26    27    1
    13    27    28    1
    14     4     5    1
    15     5     6    1
    16     6     7    1
    17     7     8    1
    18     8     9    2
    19     8    10    2
    20     8    11    1
    21    11    12   ar
    22    12    13   ar
    23    13    14   ar
    24    14    17    1
    25    17    18    1
    26    17    19    1
    27    17    21    1
    28    21    22    1
    29    21    23    1
    30    21    24    1
    31    14    15   ar
    32    15    16   ar
    33     7     2    1
    34    16    11   ar
    35    28    26    1
    36    34    29   ar
    37    19    20    1
@<TRIPOS>MOLECULE
*****
 34 37 0 0 0
SMALL
GASTEIGER

@<TRIPOS>ATOM
      1 C          62.3774   88.2423   10.8423 C.3     1  UNL1        0.0206
      2 C          63.1648   88.9054   11.9333 C.3     1  UNL1        0.0956
      3 C          63.4878   90.3674   11.8427 C.3     1  UNL1        0.0900
      4 N          64.2752   91.0305   12.9337 N.3     1  UNL1       -0.2700
      5 C          64.7396   90.2317   14.1153 C.3     1  UNL1        0.0915
      6 C          64.4165   88.7697   14.2059 C.3     1  UNL1        0.1131
      7 N          63.6291   88.1066   13.1149 N.3     1  UNL1       -0.1541
      8 S          63.3061   86.6445   13.2055 S.O2    1  UNL1        0.0633
      9 O          62.4363   86.7614   11.9891 O.2     1  UNL1       -0.1528
     10 O          64.1759   86.5277   14.4219 O.2     1  UNL1       -0.1528
     11 C          62.9831   85.1826   13.2961 C.ar    1  UNL1        0.1222
     12 C          62.8364   84.5286   14.6380 C.ar    1  UNL1        0.0197
     13 C          62.5133   83.0666   14.7285 C.ar    1  UNL1       -0.0004
     14 C          62.3370   82.2586   13.4772 C.ar    1  UNL1        0.0099
     15 C          62.4836   82.9125   12.1352 C.ar    1  UNL1       -0.0004
     16 C          62.8067   84.3745   12.0447 C.ar    1  UNL1        0.0197
     17 C          62.0139   80.7966   13.5678 C.3     1  UNL1        0.1945
     18 C          61.6909   79.3345   13.6583 C.3     1  UNL1        0.0428
     19 O          61.0451   81.0794   14.6774 O.3     1  UNL1       -0.3751
     20 H          61.0333   82.0317   14.8614 H       1  UNL1        0.2110
     21 C          62.9827   80.5138   12.4581 C.3     1  UNL1        0.4230
     22 F          63.9515   80.2309   11.3483 F       1  UNL1       -0.1673
     23 F          62.1082   80.1260   11.3027 F       1  UNL1       -0.1673
     24 F          64.1257   80.8429   13.3720 F       1  UNL1       -0.1673
     25 C          64.5982   92.4926   12.8431 C.3     1  UNL1        0.0762
     26 C          65.8535   92.9421   12.1559 C.3     1  UNL1        0.0337
     27 C          66.7710   93.4291   11.0738 C.3     1  UNL1        0.0058
     28 C          65.3171   93.2060   10.7802 C.3     1  UNL1        0.0058
     29 C          66.8258   92.8344   13.2930 C.ar    1  UNL1       -0.0184
     30 C          66.6050   93.6283   14.5464 C.ar    1  UNL1        0.0164
     31 C          67.5774   93.5206   15.6835 C.ar    1  UNL1        0.0986
     32 N          68.7705   92.6190   15.5671 N.ar    1  UNL1       -0.2423
     33 C          68.9913   91.8251   14.3137 C.ar    1  UNL1        0.0986
     34 C          68.0189   91.9328   13.1767 C.ar    1  UNL1        0.0164
@<TRIPOS>BOND
     1     2     1    1
     2     2     3    1
     3     3     4    1
     4     4    25    1
     5    25    26    1
     6    26    29    1
     7    29    30   ar
     8    30    31   ar
     9    31    32   ar
    10    32    33   ar
    11    33    34   ar
    12    26    27    1
    13    27    28    1
    14     4     5    1
    15     5     6    1
    16     6     7    1
    17     7     8    1
    18     8     9    2
    19     8    10    2
    20     8    11    1
    21    11    12   ar
    22    12    13   ar
    23    13    14   ar
    24    14    17    1
    25    17    18    1
    26    17    19    1
    27    17    21    1
    28    21    22    1
    29    21    23    1
    30    21    24    1
    31    14    15   ar
    32    15    16   ar
    33     7     2    1
    34    16    11   ar
    35    28    26    1
    36    34    29   ar
    37    19    20    1
@<TRIPOS>MOLECULE
*****
 34 37 0 0 0
SMALL
GASTEIGER

@<TRIPOS>ATOM
      1 C          63.1206   84.9743    7.7696 C.3     1  UNL1        0.0206
      2 C          62.8775   84.9265    9.2490 C.3     1  UNL1        0.0956
      3 C          63.6205   83.9395   10.0997 C.3     1  UNL1        0.0900
      4 N          63.3773   83.8918   11.5791 N.3     1  UNL1       -0.2700
      5 C          62.3912   84.8310   12.2078 C.3     1  UNL1        0.0915
      6 C          61.6482   85.8180   11.3571 C.3     1  UNL1        0.1131
      7 N          61.8913   85.8658    9.8777 N.3     1  UNL1       -0.1541
      8 S          61.1482   86.8528    9.0270 S.O2    1  UNL1        0.0633
      9 O          62.0486   87.9496    9.5132 O.2     1  UNL1       -0.1528
     10 O          60.2479   85.7561    8.5408 O.2     1  UNL1       -0.1528
     11 C          60.4052   87.8399    8.1764 C.ar    1  UNL1        0.1222
     12 C          59.4473   87.3556    7.1286 C.ar    1  UNL1        0.0197
     13 C          58.7043   88.3427    6.2779 C.ar    1  UNL1       -0.0004
     14 C          58.9192   89.8141    6.4751 C.ar    1  UNL1        0.0099
     15 C          59.8771   90.2984    7.5229 C.ar    1  UNL1       -0.0004
     16 C          60.6201   89.3113    8.3735 C.ar    1  UNL1        0.0197
     17 C          58.1762   90.8011    5.6244 C.3     1  UNL1        0.1945
     18 C          57.4332   91.7882    4.7737 C.3     1  UNL1        0.0428
     19 O          56.8734   90.2563    6.1302 O.3     1  UNL1       -0.3751
     20 H          57.0456   89.5371    6.7579 H       1  UNL1        0.2110
     21 C          59.4790   91.3459    5.1186 C.3     1  UNL1        0.4230
     22 F          60.7819   91.8907    4.6128 F       1  UNL1       -0.1673
     23 F          60.3469   90.1316    4.9696 F       1  UNL1       -0.1673
     24 F          58.9095   92.7334    5.1461 F       1  UNL1       -0.1673
     25 C          64.1204   82.9047   12.4298 C.3     1  UNL1        0.0762
     26 C          63.4637   82.3164   13.6433 C.3     1  UNL1        0.0337
     27 C          62.7819   81.3203   14.5337 C.3     1  UNL1        0.0058
     28 C          63.1633   80.9378   13.1344 C.3     1  UNL1        0.0058
     29 C          63.5360   83.4908   14.5737 C.ar    1  UNL1       -0.0184
     30 C          62.3966   83.7809   15.5052 C.ar    1  UNL1        0.0164
     31 C          62.4689   84.9553   16.4356 C.ar    1  UNL1        0.0986
     32 N          63.6805   85.8395   16.4345 N.ar    1  UNL1       -0.2423
     33 C          64.8199   85.5494   15.5030 C.ar    1  UNL1        0.0986
     34 C          64.7476   84.3750   14.5726 C.ar    1  UNL1        0.0164
@<TRIPOS>BOND
     1     2     1    1
     2     2     3    1
     3     3     4    1
     4     4    25    1
     5    25    26    1
     6    26    29    1
     7    29    30   ar
     8    30    31   ar
     9    31    32   ar
    10    32    33   ar
    11    33    34   ar
    12    26    27    1
    13    27    28    1
    14     4     5    1
    15     5     6    1
    16     6     7    1
    17     7     8    1
    18     8     9    2
    19     8    10    2
    20     8    11    1
    21    11    12   ar
    22    12    13   ar
    23    13    14   ar
    24    14    17    1
    25    17    18    1
    26    17    19    1
    27    17    21    1
    28    21    22    1
    29    21    23    1
    30    21    24    1
    31    14    15   ar
    32    15    16   ar
    33     7     2    1
    34    16    11   ar
    35    28    26    1
    36    34    29   ar
    37    19    20    1
@<TRIPOS>MOLECULE
*****
 34 37 0 0 0
SMALL
GASTEIGER

@<TRIPOS>ATOM
      1 C          63.1425   85.0956    8.0180 C.3     1  UNL1        0.0206
      2 C          62.9636   85.1598    9.5059 C.3     1  UNL1        0.0956
      3 C          63.7515   84.2451   10.3961 C.3     1  UNL1        0.0900
      4 N          63.5726   84.3093   11.8840 N.3     1  UNL1       -0.2700
      5 C          62.6058   85.2882   12.4817 C.3     1  UNL1        0.0915
      6 C          61.8180   86.2028   11.5914 C.3     1  UNL1        0.1131
      7 N          61.9969   86.1387   10.1035 N.3     1  UNL1       -0.1541
      8 S          61.2090   87.0534    9.2132 S.O2    1  UNL1        0.0633
      9 O          60.3056   85.9147    8.8428 O.2     1  UNL1       -0.1528
     10 O          62.1123   88.1921    9.5836 O.2     1  UNL1       -0.1528
     11 C          60.4211   87.9681    8.3230 C.ar    1  UNL1        0.1222
     12 C          60.5616   89.4549    8.4626 C.ar    1  UNL1        0.0197
     13 C          59.7736   90.3696    7.5723 C.ar    1  UNL1       -0.0004
     14 C          58.8452   89.7974    6.5425 C.ar    1  UNL1        0.0099
     15 C          58.7047   88.3105    6.4029 C.ar    1  UNL1       -0.0004
     16 C          59.4926   87.3959    7.2931 C.ar    1  UNL1        0.0197
     17 C          58.0573   90.7120    5.6522 C.3     1  UNL1        0.1945
     18 C          57.2694   91.6268    4.7619 C.3     1  UNL1        0.0428
     19 O          56.7823   90.0990    6.1508 O.3     1  UNL1       -0.3751
     20 H          56.9879   89.4092    6.8010 H       1  UNL1        0.2110
     21 C          59.3322   91.3251    5.1537 C.3     1  UNL1        0.4230
     22 F          60.6073   91.9381    4.6551 F       1  UNL1       -0.1673
     23 F          60.2646   90.1587    5.0115 F       1  UNL1       -0.1673
     24 F          58.6894   92.6802    5.1758 F       1  UNL1       -0.1673
     25 C          64.3605   83.3946   12.7743 C.3     1  UNL1        0.0762
     26 C          63.9155   83.1562   14.1868 C.3     1  UNL1        0.0337
     27 C          63.7886   83.3240   15.6720 C.3     1  UNL1        0.0058
     28 C          64.6766   84.2429   14.8866 C.3     1  UNL1        0.0058
     29 C          62.9999   81.9866   13.9776 C.ar    1  UNL1       -0.0184
     30 C          61.5890   82.0386   14.4845 C.ar    1  UNL1        0.0164
     31 C          60.6734   80.8691   14.2753 C.ar    1  UNL1        0.0986
     32 N          61.1685   79.6477   13.5593 N.ar    1  UNL1       -0.2423
     33 C          62.5793   79.5957   13.0524 C.ar    1  UNL1        0.0986
     34 C          63.4950   80.7652   13.2616 C.ar    1  UNL1        0.0164
@<TRIPOS>BOND
     1     2     1    1
     2     2     3    1
     3     3     4    1
     4     4    25    1
     5    25    26    1
     6    26    29    1
     7    29    30   ar
     8    30    31   ar
     9    31    32   ar
    10    32    33   ar
    11    33    34   ar
    12    26    27    1
    13    27    28    1
    14     4     5    1
    15     5     6    1
    16     6     7    1
    17     7     8    1
    18     8     9    2
    19     8    10    2
    20     8    11    1
    21    11    12   ar
    22    12    13   ar
    23    13    14   ar
    24    14    17    1
    25    17    18    1
    26    17    19    1
    27    17    21    1
    28    21    22    1
    29    21    23    1
    30    21    24    1
    31    14    15   ar
    32    15    16   ar
    33     7     2    1
    34    16    11   ar
    35    28    26    1
    36    34    29   ar
    37    19    20    1
@<TRIPOS>MOLECULE
*****
 34 37 0 0 0
SMALL
GASTEIGER

@<TRIPOS>ATOM
      1 C          46.1802   73.5302   19.4376 C.3     1  UNL1        0.0206
      2 C          45.6849   73.2734   18.0452 C.3     1  UNL1        0.0956
      3 C          45.4195   71.8688   17.5907 C.3     1  UNL1        0.0900
      4 N          44.9242   71.6119   16.1984 N.3     1  UNL1       -0.2700
      5 C          44.6943   72.7597   15.2604 C.3     1  UNL1        0.0915
      6 C          44.9597   74.1643   15.7149 C.3     1  UNL1        0.1131
      7 N          45.4550   74.4212   17.1073 N.3     1  UNL1       -0.1541
      8 S          45.7204   75.8259   17.5618 S.O2    1  UNL1        0.0633
      9 O          47.1961   75.5600   17.5215 O.2     1  UNL1       -0.1528
     10 O          44.2447   76.0917   17.6021 O.2     1  UNL1       -0.1528
     11 C          45.9858   77.2305   18.0162 C.ar    1  UNL1        0.1222
     12 C          44.9932   78.3151   17.7191 C.ar    1  UNL1        0.0197
     13 C          45.2587   79.7198   18.1735 C.ar    1  UNL1       -0.0004
     14 C          46.5168   80.0398   18.9251 C.ar    1  UNL1        0.0099
     15 C          47.5094   78.9551   19.2222 C.ar    1  UNL1       -0.0004
     16 C          47.2440   77.5505   18.7678 C.ar    1  UNL1        0.0197
     17 C          46.7822   81.4444   19.3795 C.3     1  UNL1        0.1945
     18 C          47.0476   82.8491   19.8340 C.3     1  UNL1        0.0428
     19 O          48.1239   81.4075   18.7100 O.3     1  UNL1       -0.3751
     20 H          48.2513   80.5431   18.2886 H       1  UNL1        0.2110
     21 C          45.4405   81.4813   20.0490 C.3     1  UNL1        0.4230
     22 F          44.0987   81.5182   20.7186 F       1  UNL1       -0.1673
     23 F          45.5981   80.5682   21.2286 F       1  UNL1       -0.1673
     24 F          44.9433   82.4317   19.0003 F       1  UNL1       -0.1673
     25 C          44.6588   70.2072   15.7439 C.3     1  UNL1        0.0762
     26 C          45.7573   69.4022   15.1154 C.3     1  UNL1        0.0337
     27 C          47.0530   68.6615   14.9648 C.3     1  UNL1        0.0058
     28 C          46.7064   69.3078   16.2731 C.3     1  UNL1        0.0058
     29 C          45.1899   69.2169   13.7393 C.ar    1  UNL1       -0.0184
     30 C          44.2009   70.2055   13.1964 C.ar    1  UNL1        0.0164
     31 C          43.6335   70.0202   11.8203 C.ar    1  UNL1        0.0986
     32 N          44.0549   68.8463   10.9871 N.ar    1  UNL1       -0.2423
     33 C          45.0438   67.8577   11.5300 C.ar    1  UNL1        0.0986
     34 C          45.6113   68.0430   12.9060 C.ar    1  UNL1        0.0164
@<TRIPOS>BOND
     1     2     1    1
     2     2     3    1
     3     3     4    1
     4     4    25    1
     5    25    26    1
     6    26    29    1
     7    29    30   ar
     8    30    31   ar
     9    31    32   ar
    10    32    33   ar
    11    33    34   ar
    12    26    27    1
    13    27    28    1
    14     4     5    1
    15     5     6    1
    16     6     7    1
    17     7     8    1
    18     8     9    2
    19     8    10    2
    20     8    11    1
    21    11    12   ar
    22    12    13   ar
    23    13    14   ar
    24    14    17    1
    25    17    18    1
    26    17    19    1
    27    17    21    1
    28    21    22    1
    29    21    23    1
    30    21    24    1
    31    14    15   ar
    32    15    16   ar
    33     7     2    1
    34    16    11   ar
    35    28    26    1
    36    34    29   ar
    37    19    20    1
@<TRIPOS>MOLECULE
*****
 34 37 0 0 0
SMALL
GASTEIGER

@<TRIPOS>ATOM
      1 C          64.8270   93.9979    0.0845 C.3     1  UNL1        0.0206
      2 C          63.9139   94.6959   -0.8794 C.3     1  UNL1        0.0956
      3 C          64.4849   95.4267   -2.0583 C.3     1  UNL1        0.0900
      4 N          63.5718   96.1247   -3.0221 N.3     1  UNL1       -0.2700
      5 C          62.0877   96.0920   -2.8070 C.3     1  UNL1        0.0915
      6 C          61.5167   95.3612   -1.6281 C.3     1  UNL1        0.1131
      7 N          62.4298   94.6632   -0.6643 N.3     1  UNL1       -0.1541
      8 S          61.8587   93.9324    0.5147 S.O2    1  UNL1        0.0633
      9 O          61.7478   92.6856   -0.3120 O.2     1  UNL1       -0.1528
     10 O          61.9696   95.1791    1.3413 O.2     1  UNL1       -0.1528
     11 C          61.2876   93.2015    1.6935 C.ar    1  UNL1        0.1222
     12 C          62.1980   92.4733    2.6374 C.ar    1  UNL1        0.0197
     13 C          61.6269   91.7425    3.8163 C.ar    1  UNL1       -0.0004
     14 C          60.1455   91.7399    4.0513 C.ar    1  UNL1        0.0099
     15 C          59.2351   92.4681    3.1074 C.ar    1  UNL1       -0.0004
     16 C          59.8061   93.1989    1.9285 C.ar    1  UNL1        0.0197
     17 C          59.5744   91.0091    5.2301 C.3     1  UNL1        0.1945
     18 C          59.0033   90.2782    6.4091 C.3     1  UNL1        0.0428
     19 O          60.8806   90.2969    5.4214 O.3     1  UNL1       -0.3751
     20 H          61.5103   90.5890    4.7439 H       1  UNL1        0.2110
     21 C          58.2682   91.7212    5.0389 C.3     1  UNL1        0.4230
     22 F          56.9619   92.4334    4.8476 F       1  UNL1       -0.1673
     23 F          57.2831   90.6153    4.8013 F       1  UNL1       -0.1673
     24 F          58.9577   93.0388    5.2361 F       1  UNL1       -0.1673
     25 C          64.1429   96.8556   -4.2011 C.3     1  UNL1        0.0762
     26 C          64.7556   96.0876   -5.3345 C.3     1  UNL1        0.0337
     27 C          65.7990   95.4599   -6.2105 C.3     1  UNL1        0.0058
     28 C          66.2083   96.2248   -4.9870 C.3     1  UNL1        0.0058
     29 C          63.5157   95.6836   -6.0758 C.ar    1  UNL1       -0.0184
     30 C          63.3943   94.2968   -6.6345 C.ar    1  UNL1        0.0164
     31 C          62.1544   93.8929   -7.3758 C.ar    1  UNL1        0.0986
     32 N          61.0360   94.8756   -7.5584 N.ar    1  UNL1       -0.2423
     33 C          61.1575   96.2624   -6.9997 C.ar    1  UNL1        0.0986
     34 C          62.3974   96.6664   -6.2584 C.ar    1  UNL1        0.0164
@<TRIPOS>BOND
     1     2     1    1
     2     2     3    1
     3     3     4    1
     4     4    25    1
     5    25    26    1
     6    26    29    1
     7    29    30   ar
     8    30    31   ar
     9    31    32   ar
    10    32    33   ar
    11    33    34   ar
    12    26    27    1
    13    27    28    1
    14     4     5    1
    15     5     6    1
    16     6     7    1
    17     7     8    1
    18     8     9    2
    19     8    10    2
    20     8    11    1
    21    11    12   ar
    22    12    13   ar
    23    13    14   ar
    24    14    17    1
    25    17    18    1
    26    17    19    1
    27    17    21    1
    28    21    22    1
    29    21    23    1
    30    21    24    1
    31    14    15   ar
    32    15    16   ar
    33     7     2    1
    34    16    11   ar
    35    28    26    1
    36    34    29   ar
    37    19    20    1
@<TRIPOS>MOLECULE
*****
 34 37 0 0 0
SMALL
GASTEIGER

@<TRIPOS>ATOM
      1 C          58.8778   92.3780   -2.2073 C.3     1  UNL1        0.0206
      2 C          59.5135   93.3094   -1.2182 C.3     1  UNL1        0.0956
      3 C          60.8780   93.0074   -0.6734 C.3     1  UNL1        0.0900
      4 N          61.5137   93.9388    0.3157 N.3     1  UNL1       -0.2700
      5 C          60.7850   95.1723    0.7600 C.3     1  UNL1        0.0915
      6 C          59.4205   95.4743    0.2151 C.3     1  UNL1        0.1131
      7 N          58.7847   94.5429   -0.7740 N.3     1  UNL1       -0.1541
      8 S          57.4202   94.8450   -1.3188 S.O2    1  UNL1        0.0633
      9 O          57.9555   96.0847   -1.9719 O.2     1  UNL1       -0.1528
     10 O          56.8849   93.6054   -0.6657 O.2     1  UNL1       -0.1528
     11 C          56.0557   95.1472   -1.8636 C.ar    1  UNL1        0.1222
     12 C          55.6077   94.5237   -3.1523 C.ar    1  UNL1        0.0197
     13 C          54.2432   94.8259   -3.6971 C.ar    1  UNL1       -0.0004
     14 C          53.3267   95.7515   -2.9533 C.ar    1  UNL1        0.0099
     15 C          53.7747   96.3749   -1.6646 C.ar    1  UNL1       -0.0004
     16 C          55.1391   96.0728   -1.1198 C.ar    1  UNL1        0.0197
     17 C          51.9622   96.0536   -3.4981 C.3     1  UNL1        0.1945
     18 C          50.5977   96.3558   -4.0430 C.3     1  UNL1        0.0428
     19 O          51.3715   95.8426   -2.1356 O.3     1  UNL1       -0.3751
     20 H          52.0760   95.6129   -1.5097 H       1  UNL1        0.2110
     21 C          52.5530   96.2646   -4.8606 C.3     1  UNL1        0.4230
     22 F          53.1438   96.4757   -6.2231 F       1  UNL1       -0.1673
     23 F          53.9064   96.8487   -4.5829 F       1  UNL1       -0.1673
     24 F          51.3054   95.7153   -5.4867 F       1  UNL1       -0.1673
     25 C          62.8783   93.6367    0.8606 C.3     1  UNL1        0.0762
     26 C          63.9752   94.6529    0.7417 C.3     1  UNL1        0.0337
     27 C          65.0780   95.5893    1.1378 C.3     1  UNL1        0.0058
     28 C          64.3734   94.7761    2.1827 C.3     1  UNL1        0.0058
     29 C          63.9579   94.8828   -0.7404 C.ar    1  UNL1       -0.0184
     30 C          64.0743   93.7202   -1.6811 C.ar    1  UNL1        0.0164
     31 C          64.0570   93.9500   -3.1633 C.ar    1  UNL1        0.0986
     32 N          63.9234   95.3424   -3.7048 N.ar    1  UNL1       -0.2423
     33 C          63.8070   96.5051   -2.7641 C.ar    1  UNL1        0.0986
     34 C          63.8242   96.2752   -1.2819 C.ar    1  UNL1        0.0164
@<TRIPOS>BOND
     1     2     1    1
     2     2     3    1
     3     3     4    1
     4     4    25    1
     5    25    26    1
     6    26    29    1
     7    29    30   ar
     8    30    31   ar
     9    31    32   ar
    10    32    33   ar
    11    33    34   ar
    12    26    27    1
    13    27    28    1
    14     4     5    1
    15     5     6    1
    16     6     7    1
    17     7     8    1
    18     8     9    2
    19     8    10    2
    20     8    11    1
    21    11    12   ar
    22    12    13   ar
    23    13    14   ar
    24    14    17    1
    25    17    18    1
    26    17    19    1
    27    17    21    1
    28    21    22    1
    29    21    23    1
    30    21    24    1
    31    14    15   ar
    32    15    16   ar
    33     7     2    1
    34    16    11   ar
    35    28    26    1
    36    34    29   ar
    37    19    20    1
@<TRIPOS>MOLECULE
*****
 34 37 0 0 0
SMALL
GASTEIGER

@<TRIPOS>ATOM
      1 C          61.3590   92.7747   -2.0382 C.3     1  UNL1        0.0206
      2 C          62.4662   93.7584   -1.7999 C.3     1  UNL1        0.0956
      3 C          63.1690   94.3928   -2.9632 C.3     1  UNL1        0.0900
      4 N          64.2761   95.3765   -2.7249 N.3     1  UNL1       -0.2700
      5 C          64.6804   95.7256   -1.3232 C.3     1  UNL1        0.0915
      6 C          63.9775   95.0911   -0.1599 C.3     1  UNL1        0.1131
      7 N          62.8704   94.1075   -0.3982 N.3     1  UNL1       -0.1541
      8 S          62.1675   93.4730    0.7652 S.O2    1  UNL1        0.0633
      9 O          60.9835   94.3650    0.5363 O.2     1  UNL1       -0.1528
     10 O          63.3515   92.5810    0.9941 O.2     1  UNL1       -0.1528
     11 C          61.4647   92.8386    1.9286 C.ar    1  UNL1        0.1222
     12 C          62.2469   92.0568    2.9419 C.ar    1  UNL1        0.0197
     13 C          61.5440   91.4223    4.1053 C.ar    1  UNL1       -0.0004
     14 C          60.0588   91.5697    4.2553 C.ar    1  UNL1        0.0099
     15 C          59.2766   92.3516    3.2420 C.ar    1  UNL1       -0.0004
     16 C          59.9794   92.9860    2.0786 C.ar    1  UNL1        0.0197
     17 C          59.3560   90.9353    5.4187 C.3     1  UNL1        0.1945
     18 C          58.6530   90.3009    6.5821 C.3     1  UNL1        0.0428
     19 O          60.5920   90.1468    5.7355 O.3     1  UNL1       -0.3751
     20 H          61.2870   90.3637    5.0945 H       1  UNL1        0.2110
     21 C          58.1199   91.7238    5.1018 C.3     1  UNL1        0.4230
     22 F          56.8838   92.5123    4.7850 F       1  UNL1       -0.1673
     23 F          57.0610   90.6784    4.9126 F       1  UNL1       -0.1673
     24 F          58.9029   92.9980    5.2179 F       1  UNL1       -0.1673
     25 C          64.9790   96.0109   -3.8883 C.3     1  UNL1        0.0762
     26 C          64.3365   96.0105   -5.2437 C.3     1  UNL1        0.0337
     27 C          63.3524   96.3036   -6.3372 C.3     1  UNL1        0.0058
     28 C          63.1301   96.8557   -4.9604 C.3     1  UNL1        0.0058
     29 C          65.3196   95.1650   -5.9978 C.ar    1  UNL1       -0.0184
     30 C          66.5912   95.7720   -6.5124 C.ar    1  UNL1        0.0164
     31 C          67.5743   94.9266   -7.2664 C.ar    1  UNL1        0.0986
     32 N          67.2860   93.4742   -7.5059 N.ar    1  UNL1       -0.2423
     33 C          66.0145   92.8672   -6.9913 C.ar    1  UNL1        0.0986
     34 C          65.0313   93.7126   -6.2372 C.ar    1  UNL1        0.0164
@<TRIPOS>BOND
     1     2     1    1
     2     2     3    1
     3     3     4    1
     4     4    25    1
     5    25    26    1
     6    26    29    1
     7    29    30   ar
     8    30    31   ar
     9    31    32   ar
    10    32    33   ar
    11    33    34   ar
    12    26    27    1
    13    27    28    1
    14     4     5    1
    15     5     6    1
    16     6     7    1
    17     7     8    1
    18     8     9    2
    19     8    10    2
    20     8    11    1
    21    11    12   ar
    22    12    13   ar
    23    13    14   ar
    24    14    17    1
    25    17    18    1
    26    17    19    1
    27    17    21    1
    28    21    22    1
    29    21    23    1
    30    21    24    1
    31    14    15   ar
    32    15    16   ar
    33     7     2    1
    34    16    11   ar
    35    28    26    1
    36    34    29   ar
    37    19    20    1
