@<TRIPOS>MOLECULE
*****
 33 37 0 0 0
SMALL
GASTEIGER

@<TRIPOS>ATOM
      1 C          64.2596   83.0108   14.6657 C.3     1  UNL1        0.2159
      2 N          63.7968   84.2076   13.8888 N.am    1  UNL1       -0.1449
      3 C          64.2358   85.5825   14.2971 C.2     1  UNL1        0.3728
      4 N          65.1378   85.7607   15.4824 N.2     1  UNL1       -0.1329
      5 N          63.7730   86.7793   13.5202 N.pl3   1  UNL1       -0.2247
      6 C          62.8710   86.6010   12.3350 C.3     1  UNL1        0.1559
      7 C          62.2573   87.5852   11.3838 C.3     1  UNL1        0.1327
      8 N          61.4390   86.8184   10.3876 N.pl3   1  UNL1       -0.2740
      9 C          61.5469   85.3604   10.7231 C.3     1  UNL1        0.1079
     10 C          62.4320   85.2261   11.9267 C.3     1  UNL1        0.1498
     11 C          62.8948   84.0293   12.7036 C.2     1  UNL1        0.2919
     12 O          62.4558   82.6544   12.2953 O.2     1  UNL1       -0.2563
     13 H          65.4416   84.9753   15.9923 H       1  UNL1        0.3058
     14 H          64.0611   87.6817   13.7882 H       1  UNL1        0.2454
     15 C          60.6510   87.4065    9.2547 C.ar    1  UNL1        0.2203
     16 N          60.6684   88.8876    9.0184 N.ar    1  UNL1       -0.2121
     17 C          59.8803   89.4755    7.8855 C.ar    1  UNL1        0.1034
     18 C          59.0750   88.5824    6.9890 C.ar    1  UNL1        0.0414
     19 C          59.0576   87.1012    7.2254 C.ar    1  UNL1        0.1034
     20 N          59.8457   86.5133    8.3583 N.ar    1  UNL1       -0.2121
     21 C          63.2254   88.0299   12.6227 C.ar    1  UNL1        0.0397
     22 C          64.0849   88.5149   13.7522 C.ar    1  UNL1        0.0057
     23 C          64.1731   90.0094   13.6589 C.ar    1  UNL1        0.0068
     24 C          63.3680   90.4481   12.4717 C.ar    1  UNL1        0.0352
     25 S          62.7823   89.2246   11.8313 S.2     1  UNL1       -0.0878
     26 C          64.9329   90.9076   14.5894 C.ar    1  UNL1        0.0012
     27 C          64.2730   91.4339   15.8293 C.ar    1  UNL1        0.0001
     28 C          65.0328   92.3321   16.7599 C.ar    1  UNL1        0.0007
     29 C          66.4527   92.7040   16.4505 C.ar    1  UNL1        0.0103
     30 C          67.1126   92.1777   15.2106 C.ar    1  UNL1        0.0684
     31 C          66.3528   91.2795   14.2801 C.ar    1  UNL1        0.0103
     32 C          68.5325   92.5496   14.9011 C.1     1  UNL1        0.1004
     33 N          69.9524   92.9213   14.5917 N.1     1  UNL1       -0.1908
@<TRIPOS>BOND
     1     1     2    1
     2     2     3    1
     3     3     4    2
     4     3     5    1
     5     5     6    1
     6     6    21    1
     7    21    22   ar
     8    22    23   ar
     9    23    26    1
    10    26    27   ar
    11    27    28   ar
    12    28    29   ar
    13    29    30   ar
    14    30    32    1
    15    32    33    3
    16    30    31   ar
    17    23    24   ar
    18    24    25   ar
    19     6     7    1
    20     7     8    1
    21     8    15    1
    22    15    16   ar
    23    16    17   ar
    24    17    18   ar
    25    18    19   ar
    26    19    20   ar
    27     8     9    1
    28    10     9    1
    29    10    11    1
    30    11    12    2
    31    11     2   am
    32    10     6    1
    33    25    21   ar
    34    20    15   ar
    35    31    26   ar
    36     4    13    1
    37     5    14    1
@<TRIPOS>MOLECULE
*****
 33 37 0 0 0
SMALL
GASTEIGER

@<TRIPOS>ATOM
      1 C          59.8185   89.3660    8.0155 C.3     1  UNL1        0.2159
      2 N          60.6067   88.6793    9.0914 N.am    1  UNL1       -0.1449
      3 C          61.4063   89.4892   10.0683 C.2     1  UNL1        0.3728
      4 N          61.4178   90.9860    9.9695 N.2     1  UNL1       -0.1329
      5 N          62.1945   88.8025   11.1441 N.pl3   1  UNL1       -0.2247
      6 C          62.1829   87.3058   11.2429 C.3     1  UNL1        0.1559
      7 C          62.8565   86.3573   12.1898 C.3     1  UNL1        0.1327
      8 N          62.4731   84.9610   11.7979 N.pl3   1  UNL1       -0.2740
      9 C          61.5626   85.0467   10.6089 C.3     1  UNL1        0.1079
     10 C          61.3833   86.4959   10.2659 C.3     1  UNL1        0.1498
     11 C          60.5952   87.1826    9.1901 C.2     1  UNL1        0.2919
     12 O          59.7955   86.3726    8.2131 O.2     1  UNL1       -0.2563
     13 H          60.9005   91.4367    9.2635 H       1  UNL1        0.3058
     14 H          62.7193   89.3342   11.7854 H       1  UNL1        0.2454
     15 C          62.9215   83.7004   12.4760 C.ar    1  UNL1        0.2203
     16 N          63.5703   83.7654   13.8269 N.ar    1  UNL1       -0.2121
     17 C          64.0186   82.5047   14.5049 C.ar    1  UNL1        0.1034
     18 C          63.8182   81.1791   13.8322 C.ar    1  UNL1        0.0414
     19 C          63.1693   81.1141   12.4814 C.ar    1  UNL1        0.1034
     20 N          62.7210   82.3748   11.8033 N.ar    1  UNL1       -0.2121
     21 C          63.0250   87.9797   12.2854 C.ar    1  UNL1        0.0397
     22 C          63.5324   89.3902   12.2325 C.ar    1  UNL1        0.0057
     23 C          64.3286   89.6435   13.4783 C.ar    1  UNL1        0.0068
     24 C          64.3133   88.3895   14.3012 C.ar    1  UNL1        0.0352
     25 S          63.5076   87.3611   13.5639 S.2     1  UNL1       -0.0878
     26 C          65.0188   90.9257   13.8380 C.ar    1  UNL1        0.0012
     27 C          65.3591   91.2184   15.2693 C.ar    1  UNL1        0.0001
     28 C          66.0493   92.5006   15.6291 C.ar    1  UNL1        0.0007
     29 C          66.3994   93.4902   14.5575 C.ar    1  UNL1        0.0103
     30 C          66.0592   93.1975   13.1263 C.ar    1  UNL1        0.0684
     31 C          65.3689   91.9153   12.7665 C.ar    1  UNL1        0.0103
     32 C          66.4092   94.1871   12.0547 C.1     1  UNL1        0.1004
     33 N          66.7592   95.1766   10.9830 N.1     1  UNL1       -0.1908
@<TRIPOS>BOND
     1     1     2    1
     2     2     3    1
     3     3     4    2
     4     3     5    1
     5     5     6    1
     6     6    21    1
     7    21    22   ar
     8    22    23   ar
     9    23    26    1
    10    26    27   ar
    11    27    28   ar
    12    28    29   ar
    13    29    30   ar
    14    30    32    1
    15    32    33    3
    16    30    31   ar
    17    23    24   ar
    18    24    25   ar
    19     6     7    1
    20     7     8    1
    21     8    15    1
    22    15    16   ar
    23    16    17   ar
    24    17    18   ar
    25    18    19   ar
    26    19    20   ar
    27     8     9    1
    28    10     9    1
    29    10    11    1
    30    11    12    2
    31    11     2   am
    32    10     6    1
    33    25    21   ar
    34    20    15   ar
    35    31    26   ar
    36     4    13    1
    37     5    14    1
@<TRIPOS>MOLECULE
*****
 33 37 0 0 0
SMALL
GASTEIGER

@<TRIPOS>ATOM
      1 C          58.9145   88.0301    6.4943 C.3     1  UNL1        0.2159
      2 N          59.7722   87.9262    7.7206 N.am    1  UNL1       -0.1449
      3 C          60.2038   89.1687    8.4414 C.2     1  UNL1        0.3728
      4 N          59.7778   90.5153    7.9361 N.2     1  UNL1       -0.1329
      5 N          61.0615   89.0648    9.6677 N.pl3   1  UNL1       -0.2247
      6 C          61.4876   87.7183   10.1730 C.3     1  UNL1        0.1559
      7 C          62.3258   87.3059   11.3466 C.3     1  UNL1        0.1327
      8 N          62.4122   85.8084   11.3510 N.pl3   1  UNL1       -0.2740
      9 C          61.6274   85.2953   10.1801 C.3     1  UNL1        0.1079
     10 C          61.0559   86.4757    9.4521 C.3     1  UNL1        0.1498
     11 C          60.1982   86.5796    8.2259 C.2     1  UNL1        0.2919
     12 O          59.7666   85.3371    7.5050 O.2     1  UNL1       -0.2563
     13 H          59.2148   90.5835    7.1313 H       1  UNL1        0.3058
     14 H          61.3448   89.8804   10.1408 H       1  UNL1        0.2454
     15 C          63.1534   84.9709   12.3507 C.ar    1  UNL1        0.2203
     16 N          63.5379   85.5530   13.6786 N.ar    1  UNL1       -0.2121
     17 C          64.2791   84.7155   14.6782 C.ar    1  UNL1        0.1034
     18 C          64.6357   83.2960   14.3500 C.ar    1  UNL1        0.0414
     19 C          64.2512   82.7139   13.0221 C.ar    1  UNL1        0.1034
     20 N          63.5100   83.5514   12.0225 N.ar    1  UNL1       -0.2121
     21 C          61.9943   88.8666   10.9944 C.ar    1  UNL1        0.0397
     22 C          63.1944   89.7109   10.6837 C.ar    1  UNL1        0.0057
     23 C          63.3317   90.7383   11.7681 C.ar    1  UNL1        0.0068
     24 C          62.2163   90.5289   12.7489 C.ar    1  UNL1        0.0352
     25 S          61.3897   89.3720   12.2707 S.2     1  UNL1       -0.0878
     26 C          64.3972   91.7904   11.8561 C.ar    1  UNL1        0.0012
     27 C          64.7143   92.6386   10.6604 C.ar    1  UNL1        0.0001
     28 C          65.7798   93.6907   10.7484 C.ar    1  UNL1        0.0007
     29 C          66.5283   93.8946   12.0322 C.ar    1  UNL1        0.0103
     30 C          66.2112   93.0463   13.2280 C.ar    1  UNL1        0.0684
     31 C          65.1456   91.9943   13.1399 C.ar    1  UNL1        0.0103
     32 C          66.9596   93.2502   14.5119 C.1     1  UNL1        0.1004
     33 N          67.7080   93.4539   15.7958 N.1     1  UNL1       -0.1908
@<TRIPOS>BOND
     1     1     2    1
     2     2     3    1
     3     3     4    2
     4     3     5    1
     5     5     6    1
     6     6    21    1
     7    21    22   ar
     8    22    23   ar
     9    23    26    1
    10    26    27   ar
    11    27    28   ar
    12    28    29   ar
    13    29    30   ar
    14    30    32    1
    15    32    33    3
    16    30    31   ar
    17    23    24   ar
    18    24    25   ar
    19     6     7    1
    20     7     8    1
    21     8    15    1
    22    15    16   ar
    23    16    17   ar
    24    17    18   ar
    25    18    19   ar
    26    19    20   ar
    27     8     9    1
    28    10     9    1
    29    10    11    1
    30    11    12    2
    31    11     2   am
    32    10     6    1
    33    25    21   ar
    34    20    15   ar
    35    31    26   ar
    36     4    13    1
    37     5    14    1
@<TRIPOS>MOLECULE
*****
 33 37 0 0 0
SMALL
GASTEIGER

@<TRIPOS>ATOM
      1 C          58.5023   88.3030    6.6981 C.3     1  UNL1        0.2159
      2 N          59.5242   88.0185    7.7588 N.am    1  UNL1       -0.1449
      3 C          60.0717   86.6314    7.9199 C.2     1  UNL1        0.3728
      4 N          59.5973   85.5286    7.0204 N.2     1  UNL1       -0.1329
      5 N          61.0936   86.3469    8.9805 N.pl3   1  UNL1       -0.2247
      6 C          61.5679   87.4496    9.8800 C.3     1  UNL1        0.1559
      7 C          62.5587   87.4702   11.0060 C.3     1  UNL1        0.1327
      8 N          62.6234   88.8701   11.5408 N.pl3   1  UNL1       -0.2740
      9 C          61.6727   89.7147   10.7453 C.3     1  UNL1        0.1079
     10 C          61.0204   88.8368    9.7188 C.3     1  UNL1        0.1498
     11 C          59.9985   89.1212    8.6582 C.2     1  UNL1        0.2919
     12 O          59.4510   90.5084    8.4970 O.2     1  UNL1       -0.2563
     13 H          58.9267   85.7153    6.3243 H       1  UNL1        0.3058
     14 H          61.4530   85.4364    9.0863 H       1  UNL1        0.2454
     15 C          63.4873   89.3426   12.6724 C.ar    1  UNL1        0.2203
     16 N          64.0343   90.7392   12.6659 N.ar    1  UNL1       -0.2121
     17 C          64.8982   91.2116   13.7976 C.ar    1  UNL1        0.1034
     18 C          65.2149   90.2874   14.9358 C.ar    1  UNL1        0.0414
     19 C          64.6679   88.8908   14.9423 C.ar    1  UNL1        0.1034
     20 N          63.8040   88.4184   13.8106 N.ar    1  UNL1       -0.2121
     21 C          62.2027   86.1194   10.1585 C.ar    1  UNL1        0.0397
     22 C          61.9393   85.2493   11.3515 C.ar    1  UNL1        0.0057
     23 C          62.7862   84.0179   11.2232 C.ar    1  UNL1        0.0068
     24 C          63.5731   84.1270    9.9508 C.ar    1  UNL1        0.0352
     25 S          63.2124   85.4259    9.2928 S.2     1  UNL1       -0.0878
     26 C          62.8373   82.8776   12.1963 C.ar    1  UNL1        0.0012
     27 C          64.1607   82.3599   12.6764 C.ar    1  UNL1        0.0001
     28 C          64.2118   81.2196   13.6496 C.ar    1  UNL1        0.0007
     29 C          62.9394   80.5969   14.1427 C.ar    1  UNL1        0.0103
     30 C          61.6160   81.1145   13.6627 C.ar    1  UNL1        0.0684
     31 C          61.5649   82.2548   12.6895 C.ar    1  UNL1        0.0103
     32 C          60.3435   80.4918   14.1558 C.1     1  UNL1        0.1004
     33 N          59.0711   79.8692   14.6490 N.1     1  UNL1       -0.1908
@<TRIPOS>BOND
     1     1     2    1
     2     2     3    1
     3     3     4    2
     4     3     5    1
     5     5     6    1
     6     6    21    1
     7    21    22   ar
     8    22    23   ar
     9    23    26    1
    10    26    27   ar
    11    27    28   ar
    12    28    29   ar
    13    29    30   ar
    14    30    32    1
    15    32    33    3
    16    30    31   ar
    17    23    24   ar
    18    24    25   ar
    19     6     7    1
    20     7     8    1
    21     8    15    1
    22    15    16   ar
    23    16    17   ar
    24    17    18   ar
    25    18    19   ar
    26    19    20   ar
    27     8     9    1
    28    10     9    1
    29    10    11    1
    30    11    12    2
    31    11     2   am
    32    10     6    1
    33    25    21   ar
    34    20    15   ar
    35    31    26   ar
    36     4    13    1
    37     5    14    1
@<TRIPOS>MOLECULE
*****
 33 37 0 0 0
SMALL
GASTEIGER

@<TRIPOS>ATOM
      1 C          60.3657   88.7142    8.5497 C.3     1  UNL1        0.2159
      2 N          61.2530   88.6708    9.7585 N.am    1  UNL1       -0.1449
      3 C          61.5131   87.3663   10.4515 C.2     1  UNL1        0.3728
      4 N          60.8859   86.1049    9.9357 N.2     1  UNL1       -0.1329
      5 N          62.4003   87.3229   11.6602 N.pl3   1  UNL1       -0.2247
      6 C          63.0273   88.5841   12.1759 C.3     1  UNL1        0.1559
      7 C          63.9392   88.8497   13.3370 C.3     1  UNL1        0.1327
      8 N          64.2426   90.3185   13.3615 N.pl3   1  UNL1       -0.2740
      9 C          63.5183   90.9607   12.2156 C.3     1  UNL1        0.1079
     10 C          62.7672   89.8888   11.4829 C.3     1  UNL1        0.1498
     11 C          61.8800   89.9321   10.2742 C.2     1  UNL1        0.2919
     12 O          61.6199   91.2367    9.5811 O.2     1  UNL1       -0.2563
     13 H          60.3037   86.1334    9.1424 H       1  UNL1        0.3058
     14 H          62.5710   86.4666   12.1151 H       1  UNL1        0.2454
     15 C          65.1169   91.0217   14.3571 C.ar    1  UNL1        0.2203
     16 N          64.5050   91.6888   15.5531 N.ar    1  UNL1       -0.2121
     17 C          65.3794   92.3920   16.5487 C.ar    1  UNL1        0.1034
     18 C          66.8655   92.4281   16.3482 C.ar    1  UNL1        0.0414
     19 C          67.4773   91.7609   15.1522 C.ar    1  UNL1        0.1034
     20 N          66.6030   91.0577   14.1566 N.ar    1  UNL1       -0.2121
     21 C          63.3774   87.3601   12.9692 C.ar    1  UNL1        0.0397
     22 C          63.0011   85.9494   12.6256 C.ar    1  UNL1        0.0057
     23 C          63.5564   85.0494   13.6894 C.ar    1  UNL1        0.0068
     24 C          64.2758   85.9039   14.6905 C.ar    1  UNL1        0.0352
     25 S          64.1652   87.3321   14.2453 S.2     1  UNL1       -0.0878
     26 C          63.4167   83.5568   13.7428 C.ar    1  UNL1        0.0012
     27 C          64.6256   82.6841   13.5797 C.ar    1  UNL1        0.0001
     28 C          64.4860   81.1915   13.6331 C.ar    1  UNL1        0.0007
     29 C          63.1373   80.5717   13.8497 C.ar    1  UNL1        0.0103
     30 C          61.9283   81.4445   14.0128 C.ar    1  UNL1        0.0684
     31 C          62.0680   82.9370   13.9594 C.ar    1  UNL1        0.0103
     32 C          60.5796   80.8248   14.2294 C.1     1  UNL1        0.1004
     33 N          59.2308   80.2050   14.4459 N.1     1  UNL1       -0.1908
@<TRIPOS>BOND
     1     1     2    1
     2     2     3    1
     3     3     4    2
     4     3     5    1
     5     5     6    1
     6     6    21    1
     7    21    22   ar
     8    22    23   ar
     9    23    26    1
    10    26    27   ar
    11    27    28   ar
    12    28    29   ar
    13    29    30   ar
    14    30    32    1
    15    32    33    3
    16    30    31   ar
    17    23    24   ar
    18    24    25   ar
    19     6     7    1
    20     7     8    1
    21     8    15    1
    22    15    16   ar
    23    16    17   ar
    24    17    18   ar
    25    18    19   ar
    26    19    20   ar
    27     8     9    1
    28    10     9    1
    29    10    11    1
    30    11    12    2
    31    11     2   am
    32    10     6    1
    33    25    21   ar
    34    20    15   ar
    35    31    26   ar
    36     4    13    1
    37     5    14    1
@<TRIPOS>MOLECULE
*****
 33 37 0 0 0
SMALL
GASTEIGER

@<TRIPOS>ATOM
      1 C          62.7516   78.4024   12.0960 C.3     1  UNL1        0.2159
      2 N          62.7749   79.8919   12.2722 N.am    1  UNL1       -0.1449
      3 C          62.7423   80.7899   11.0712 C.2     1  UNL1        0.3728
      4 N          62.6864   80.1984    9.6938 N.2     1  UNL1       -0.1329
      5 N          62.7656   82.2793   11.2475 N.pl3   1  UNL1       -0.2247
      6 C          62.8214   82.8707   12.6248 C.3     1  UNL1        0.1559
      7 C          62.8548   84.2908   13.1067 C.3     1  UNL1        0.1327
      8 N          62.9080   84.2705   14.6056 N.pl3   1  UNL1       -0.2740
      9 C          62.9075   82.8378   15.0501 C.3     1  UNL1        0.1079
     10 C          62.8540   81.9727   13.8259 C.3     1  UNL1        0.1498
     11 C          62.8307   80.4833   13.6496 C.2     1  UNL1        0.2919
     12 O          62.8633   79.5853   14.8506 O.2     1  UNL1       -0.2563
     13 H          62.6712   79.2208    9.5781 H       1  UNL1        0.3058
     14 H          62.7442   82.8687   10.4592 H       1  UNL1        0.2454
     15 C          62.9537   85.4718   15.5027 C.ar    1  UNL1        0.2203
     16 N          62.2593   85.4422   16.8319 N.ar    1  UNL1       -0.2121
     17 C          62.3051   86.6436   17.7289 C.ar    1  UNL1        0.1034
     18 C          63.0452   87.8747   17.2966 C.ar    1  UNL1        0.0414
     19 C          63.7396   87.9043   15.9674 C.ar    1  UNL1        0.1034
     20 N          63.6938   86.7028   15.0704 N.ar    1  UNL1       -0.2121
     21 C          62.7938   83.8894   11.5241 C.ar    1  UNL1        0.0397
     22 C          62.1344   85.2353   11.5846 C.ar    1  UNL1        0.0057
     23 C          62.3539   85.9186   10.2674 C.ar    1  UNL1        0.0068
     24 C          63.1489   84.9950    9.3929 C.ar    1  UNL1        0.0352
     25 S          63.4208   83.7409   10.1695 S.2     1  UNL1       -0.0878
     26 C          61.8642   87.2855    9.8909 C.ar    1  UNL1        0.0012
     27 C          60.5529   87.4431    9.1801 C.ar    1  UNL1        0.0001
     28 C          60.0632   88.8100    8.8036 C.ar    1  UNL1        0.0007
     29 C          60.8850   90.0195    9.1380 C.ar    1  UNL1        0.0103
     30 C          62.1964   89.8619    9.8489 C.ar    1  UNL1        0.0684
     31 C          62.6860   88.4950   10.2254 C.ar    1  UNL1        0.0103
     32 C          63.0183   91.0714   10.1833 C.1     1  UNL1        0.1004
     33 N          63.8401   92.2809   10.5177 N.1     1  UNL1       -0.1908
@<TRIPOS>BOND
     1     1     2    1
     2     2     3    1
     3     3     4    2
     4     3     5    1
     5     5     6    1
     6     6    21    1
     7    21    22   ar
     8    22    23   ar
     9    23    26    1
    10    26    27   ar
    11    27    28   ar
    12    28    29   ar
    13    29    30   ar
    14    30    32    1
    15    32    33    3
    16    30    31   ar
    17    23    24   ar
    18    24    25   ar
    19     6     7    1
    20     7     8    1
    21     8    15    1
    22    15    16   ar
    23    16    17   ar
    24    17    18   ar
    25    18    19   ar
    26    19    20   ar
    27     8     9    1
    28    10     9    1
    29    10    11    1
    30    11    12    2
    31    11     2   am
    32    10     6    1
    33    25    21   ar
    34    20    15   ar
    35    31    26   ar
    36     4    13    1
    37     5    14    1
@<TRIPOS>MOLECULE
*****
 33 37 0 0 0
SMALL
GASTEIGER

@<TRIPOS>ATOM
      1 C          59.7275   88.2721    7.6729 C.3     1  UNL1        0.2159
      2 N          60.5753   88.2474    8.9102 N.am    1  UNL1       -0.1449
      3 C          60.9526   86.9370    9.5348 C.2     1  UNL1        0.3728
      4 N          60.4821   85.6511    8.9222 N.2     1  UNL1       -0.1329
      5 N          61.8005   86.9123   10.7720 N.pl3   1  UNL1       -0.2247
      6 C          62.2709   88.1982   11.3845 C.3     1  UNL1        0.1559
      7 C          63.1114   88.4857   12.5932 C.3     1  UNL1        0.1327
      8 N          63.2535   89.9739   12.7155 N.pl3   1  UNL1       -0.2740
      9 C          62.5008   90.6062   11.5825 C.3     1  UNL1        0.1079
     10 C          61.8936   89.5087   10.7598 C.3     1  UNL1        0.1498
     11 C          61.0458   89.5333    9.5227 C.2     1  UNL1        0.2919
     12 O          60.6684   90.8438    8.8980 O.2     1  UNL1       -0.2563
     13 H          59.9257   85.6672    8.1102 H       1  UNL1        0.3058
     14 H          62.0481   86.0522   11.1820 H       1  UNL1        0.2454
     15 C          64.0146   90.7021   13.7835 C.ar    1  UNL1        0.2203
     16 N          65.3824   91.2446   13.4922 N.ar    1  UNL1       -0.2121
     17 C          66.1434   91.9728   14.5602 C.ar    1  UNL1        0.1034
     18 C          65.5367   92.1585   15.9194 C.ar    1  UNL1        0.0414
     19 C          64.1689   91.6161   16.2106 C.ar    1  UNL1        0.1034
     20 N          63.4079   90.8879   15.1426 N.ar    1  UNL1       -0.2121
     21 C          62.7257   86.9710   12.1173 C.ar    1  UNL1        0.0397
     22 C          62.2561   85.5688   11.8654 C.ar    1  UNL1        0.0057
     23 C          62.9702   84.6617   12.8232 C.ar    1  UNL1        0.0068
     24 C          63.8811   85.5032   13.6670 C.ar    1  UNL1        0.0352
     25 S          63.7300   86.9304   13.2307 S.2     1  UNL1       -0.0878
     26 C          62.8027   83.1743   12.9201 C.ar    1  UNL1        0.0012
     27 C          62.5218   82.5360   14.2481 C.ar    1  UNL1        0.0001
     28 C          62.3543   81.0486   14.3450 C.ar    1  UNL1        0.0007
     29 C          62.4678   80.1993   13.1138 C.ar    1  UNL1        0.0103
     30 C          62.7488   80.8375   11.7858 C.ar    1  UNL1        0.0684
     31 C          62.9162   82.3249   11.6889 C.ar    1  UNL1        0.0103
     32 C          62.8623   79.9882   10.5545 C.1     1  UNL1        0.1004
     33 N          62.9757   79.1390    9.3233 N.1     1  UNL1       -0.1908
@<TRIPOS>BOND
     1     1     2    1
     2     2     3    1
     3     3     4    2
     4     3     5    1
     5     5     6    1
     6     6    21    1
     7    21    22   ar
     8    22    23   ar
     9    23    26    1
    10    26    27   ar
    11    27    28   ar
    12    28    29   ar
    13    29    30   ar
    14    30    32    1
    15    32    33    3
    16    30    31   ar
    17    23    24   ar
    18    24    25   ar
    19     6     7    1
    20     7     8    1
    21     8    15    1
    22    15    16   ar
    23    16    17   ar
    24    17    18   ar
    25    18    19   ar
    26    19    20   ar
    27     8     9    1
    28    10     9    1
    29    10    11    1
    30    11    12    2
    31    11     2   am
    32    10     6    1
    33    25    21   ar
    34    20    15   ar
    35    31    26   ar
    36     4    13    1
    37     5    14    1
@<TRIPOS>MOLECULE
*****
 33 37 0 0 0
SMALL
GASTEIGER

@<TRIPOS>ATOM
      1 C          58.7924   88.2550    6.8241 C.3     1  UNL1        0.2159
      2 N          59.7583   88.1664    7.9684 N.am    1  UNL1       -0.1449
      3 C          60.4221   89.4073    8.4873 C.2     1  UNL1        0.3728
      4 N          60.1201   90.7370    7.8619 N.2     1  UNL1       -0.1329
      5 N          61.3880   89.3188    9.6316 N.pl3   1  UNL1       -0.2247
      6 C          61.6899   87.9892   10.2569 C.3     1  UNL1        0.1559
      7 C          62.5912   87.5941   11.3890 C.3     1  UNL1        0.1327
      8 N          62.4844   86.1088   11.5697 N.pl3   1  UNL1       -0.2740
      9 C          61.5171   85.5861   10.5493 C.3     1  UNL1        0.1079
     10 C          61.0261   86.7483    9.7380 C.3     1  UNL1        0.1498
     11 C          60.0602   86.8369    8.5938 C.2     1  UNL1        0.2919
     12 O          59.3964   85.5959    8.0748 O.2     1  UNL1       -0.2563
     13 H          59.4862   90.7951    7.1109 H       1  UNL1        0.3058
     14 H          61.8237   90.1333    9.9722 H       1  UNL1        0.2454
     15 C          63.2163   85.2900   12.5913 C.ar    1  UNL1        0.2203
     16 N          63.5675   83.8619   12.2964 N.ar    1  UNL1       -0.2121
     17 C          64.2995   83.0431   13.3181 C.ar    1  UNL1        0.1034
     18 C          64.6803   83.6525   14.6348 C.ar    1  UNL1        0.0414
     19 C          64.3291   85.0807   14.9298 C.ar    1  UNL1        0.1034
     20 N          63.5972   85.8994   13.9080 N.ar    1  UNL1       -0.2121
     21 C          62.4266   89.1379   10.8798 C.ar    1  UNL1        0.0397
     22 C          62.9335   89.1994   12.2902 C.ar    1  UNL1        0.0057
     23 C          63.6059   90.5262   12.4836 C.ar    1  UNL1        0.0068
     24 C          63.5147   91.2847   11.1927 C.ar    1  UNL1        0.0352
     25 S          62.7858   90.4266   10.2015 S.2     1  UNL1       -0.0878
     26 C          64.2556   91.0097   13.7462 C.ar    1  UNL1        0.0012
     27 C          63.5110   90.9413   15.0465 C.ar    1  UNL1        0.0001
     28 C          64.1607   91.4248   16.3091 C.ar    1  UNL1        0.0007
     29 C          65.5550   91.9767   16.2714 C.ar    1  UNL1        0.0103
     30 C          66.2995   92.0451   14.9711 C.ar    1  UNL1        0.0684
     31 C          65.6499   91.5616   13.7085 C.ar    1  UNL1        0.0103
     32 C          67.6938   92.5970   14.9333 C.1     1  UNL1        0.1004
     33 N          69.0881   93.1489   14.8956 N.1     1  UNL1       -0.1908
@<TRIPOS>BOND
     1     1     2    1
     2     2     3    1
     3     3     4    2
     4     3     5    1
     5     5     6    1
     6     6    21    1
     7    21    22   ar
     8    22    23   ar
     9    23    26    1
    10    26    27   ar
    11    27    28   ar
    12    28    29   ar
    13    29    30   ar
    14    30    32    1
    15    32    33    3
    16    30    31   ar
    17    23    24   ar
    18    24    25   ar
    19     6     7    1
    20     7     8    1
    21     8    15    1
    22    15    16   ar
    23    16    17   ar
    24    17    18   ar
    25    18    19   ar
    26    19    20   ar
    27     8     9    1
    28    10     9    1
    29    10    11    1
    30    11    12    2
    31    11     2   am
    32    10     6    1
    33    25    21   ar
    34    20    15   ar
    35    31    26   ar
    36     4    13    1
    37     5    14    1
@<TRIPOS>MOLECULE
*****
 33 37 0 0 0
SMALL
GASTEIGER

@<TRIPOS>ATOM
      1 C          62.7385   78.4970   12.0319 C.3     1  UNL1        0.2159
      2 N          62.7640   79.9826   12.2382 N.am    1  UNL1       -0.1449
      3 C          62.7274   80.9047   11.0559 C.2     1  UNL1        0.3728
      4 N          62.6652   80.3414    9.6669 N.2     1  UNL1       -0.1329
      5 N          62.7529   82.3903   11.2622 N.pl3   1  UNL1       -0.2247
      6 C          62.8151   82.9536   12.6510 C.3     1  UNL1        0.1559
      7 C          62.8520   84.3636   13.1615 C.3     1  UNL1        0.1327
      8 N          62.9114   84.3127   14.6595 N.pl3   1  UNL1       -0.2740
      9 C          62.9113   82.8713   15.0748 C.3     1  UNL1        0.1079
     10 C          62.8517   82.0313   13.8334 C.3     1  UNL1        0.1498
     11 C          62.8262   80.5458   13.6270 C.2     1  UNL1        0.2919
     12 O          62.8628   79.6236   14.8095 O.2     1  UNL1       -0.2563
     13 H          62.6484   79.3664    9.5315 H       1  UNL1        0.3058
     14 H          62.7288   82.9956   10.4861 H       1  UNL1        0.2454
     15 C          62.9620   85.4956   15.5805 C.ar    1  UNL1        0.2203
     16 N          63.6580   86.7525   15.1495 N.ar    1  UNL1       -0.2121
     17 C          63.7087   87.9353   16.0706 C.ar    1  UNL1        0.1034
     18 C          63.0633   87.8613   17.4226 C.ar    1  UNL1        0.0414
     19 C          62.3673   86.6044   17.8536 C.ar    1  UNL1        0.1034
     20 N          62.3167   85.4216   16.9325 N.ar    1  UNL1       -0.2121
     21 C          62.7839   83.9944   11.5713 C.ar    1  UNL1        0.0397
     22 C          62.1456   85.3482   11.6698 C.ar    1  UNL1        0.0057
     23 C          62.3529   86.0546   10.3629 C.ar    1  UNL1        0.0068
     24 C          63.1192   85.1373    9.4566 C.ar    1  UNL1        0.0352
     25 S          63.3857   83.8640   10.2035 S.2     1  UNL1       -0.0878
     26 C          61.8772   87.4357   10.0220 C.ar    1  UNL1        0.0012
     27 C          62.3313   88.6084   10.8395 C.ar    1  UNL1        0.0001
     28 C          61.8557   89.9896   10.4987 C.ar    1  UNL1        0.0007
     29 C          60.9259   90.1980    9.3402 C.ar    1  UNL1        0.0103
     30 C          60.4718   89.0253    8.5227 C.ar    1  UNL1        0.0684
     31 C          60.9474   87.6441    8.8635 C.ar    1  UNL1        0.0103
     32 C          59.5419   89.2336    7.3642 C.1     1  UNL1        0.1004
     33 N          58.6121   89.4421    6.2057 N.1     1  UNL1       -0.1908
@<TRIPOS>BOND
     1     1     2    1
     2     2     3    1
     3     3     4    2
     4     3     5    1
     5     5     6    1
     6     6    21    1
     7    21    22   ar
     8    22    23   ar
     9    23    26    1
    10    26    27   ar
    11    27    28   ar
    12    28    29   ar
    13    29    30   ar
    14    30    32    1
    15    32    33    3
    16    30    31   ar
    17    23    24   ar
    18    24    25   ar
    19     6     7    1
    20     7     8    1
    21     8    15    1
    22    15    16   ar
    23    16    17   ar
    24    17    18   ar
    25    18    19   ar
    26    19    20   ar
    27     8     9    1
    28    10     9    1
    29    10    11    1
    30    11    12    2
    31    11     2   am
    32    10     6    1
    33    25    21   ar
    34    20    15   ar
    35    31    26   ar
    36     4    13    1
    37     5    14    1
