@<TRIPOS>MOLECULE
*****
 34 36 0 0 0
SMALL
GASTEIGER

@<TRIPOS>ATOM
      1 C          62.0073   87.9197   10.6826 C.ar    1  UNL1        0.1346
      2 C          62.9224   87.7303   11.8559 C.ar    1  UNL1        0.0334
      3 C          63.0742   86.3735   12.4772 C.ar    1  UNL1       -0.0005
      4 C          62.3110   85.2062   11.9253 C.ar    1  UNL1       -0.0098
      5 C          61.3959   85.3956   10.7520 C.ar    1  UNL1       -0.0048
      6 C          61.2441   86.7524   10.1306 C.ar    1  UNL1        0.0109
      7 C          62.4628   83.8494   12.5466 C.3     1  UNL1        0.1249
      8 C          62.6245   82.6392   11.6752 C.2     1  UNL1        0.0181
      9 C          62.7763   81.2824   12.2965 C.2     1  UNL1        0.1532
     10 F          62.9380   80.0723   11.4250 F       1  UNL1       -0.2031
     11 C          62.7665   81.1358   13.7893 C.2     1  UNL1        0.1179
     12 N          62.6049   82.3459   14.6607 N.am    1  UNL1       -0.1750
     13 C          62.4530   83.7027   14.0394 C.2     1  UNL1        0.2535
     14 O          62.2914   84.9129   14.9109 O.2     1  UNL1       -0.2723
     15 C          60.3289   86.9418    8.9573 C.3     1  UNL1        0.0218
     16 C          59.3877   87.7304    9.8187 C.3     1  UNL1        0.0045
     17 C          61.2701   86.1532    8.0958 C.3     1  UNL1        0.0045
     18 C          59.4138   87.1312    7.7840 C.3     1  UNL1        0.0045
     19 C          61.1703   90.3755   10.8180 C.3     1  UNL1        0.2525
     20 O          61.8554   89.2765   10.0613 O.3     1  UNL1       -0.4717
     21 C          63.6857   88.8977   12.4079 C.2     1  UNL1        0.0030
     22 C          63.8478   89.0541   13.8909 C.2     1  UNL1        0.0001
     23 C          64.6111   90.2214   14.4430 C.ar    1  UNL1        0.0001
     24 C          64.2359   90.8007   15.7748 C.ar    1  UNL1        0.0013
     25 C          64.9991   91.9680   16.3269 C.ar    1  UNL1        0.0158
     26 C          66.1376   92.5561   15.5471 C.ar    1  UNL1        0.0644
     27 C          66.5128   91.9769   14.2153 C.ar    1  UNL1        0.0158
     28 C          65.7496   90.8095   13.6632 C.ar    1  UNL1        0.0013
     29 N          66.9008   93.7234   16.0992 N.pl3   1  UNL1       -0.2187
     30 H          66.4173   94.4987   16.4657 H       1  UNL1        0.1734
     31 S          68.4008   93.7095   16.0927 S.O2    1  UNL1        0.0558
     32 C          69.9007   93.6955   16.0862 C.3     1  UNL1        0.1996
     33 O          68.3889   92.2558   16.4624 O.2     1  UNL1       -0.1544
     34 O          68.4128   95.1631   15.7230 O.2     1  UNL1       -0.1544
@<TRIPOS>BOND
     1    19    20    1
     2    20     1    1
     3     1     2   ar
     4     2    21    1
     5    21    22    2
     6    22    23    1
     7    23    24   ar
     8    24    25   ar
     9    25    26   ar
    10    26    29    1
    11    29    31    1
    12    31    32    1
    13    31    33    2
    14    31    34    2
    15    26    27   ar
    16    27    28   ar
    17     2     3   ar
    18     3     4   ar
    19     4     7    1
    20     7     8    1
    21     8     9    2
    22     9    10    1
    23     9    11    1
    24    11    12    2
    25    12    13    1
    26    13    14    2
    27     4     5   ar
    28     5     6   ar
    29     6    15    1
    30    15    16    1
    31    15    17    1
    32    15    18    1
    33     6     1   ar
    34    28    23   ar
    35    13     7    1
    36    29    30    1
@<TRIPOS>MOLECULE
*****
 34 36 0 0 0
SMALL
GASTEIGER

@<TRIPOS>ATOM
      1 C          63.6097   85.3910   13.5823 C.ar    1  UNL1        0.1346
      2 C          63.5372   86.7908   13.0481 C.ar    1  UNL1        0.0334
      3 C          62.7093   87.0880   11.8332 C.ar    1  UNL1       -0.0005
      4 C          61.9538   85.9854   11.1524 C.ar    1  UNL1       -0.0098
      5 C          62.0262   84.5857   11.6865 C.ar    1  UNL1       -0.0048
      6 C          62.8542   84.2885   12.9015 C.ar    1  UNL1        0.0109
      7 C          61.1258   86.2826    9.9374 C.3     1  UNL1        0.1249
      8 C          61.3604   85.5227    8.6656 C.2     1  UNL1        0.0181
      9 C          60.5325   85.8199    7.4507 C.2     1  UNL1        0.1532
     10 F          60.7672   85.0599    6.1789 F       1  UNL1       -0.2031
     11 C          59.4699   86.8771    7.5075 C.2     1  UNL1        0.1179
     12 N          59.2352   87.6370    8.7792 N.am    1  UNL1       -0.1750
     13 C          60.0632   87.3398    9.9942 C.2     1  UNL1        0.2535
     14 O          59.8285   88.0998   11.2660 O.2     1  UNL1       -0.2723
     15 C          62.9266   82.8886   13.4357 C.3     1  UNL1        0.0218
     16 C          63.9610   82.5485   12.4040 C.3     1  UNL1        0.0045
     17 C          61.8922   83.2287   14.4673 C.3     1  UNL1        0.0045
     18 C          62.9990   81.4888   13.9698 C.3     1  UNL1        0.0045
     19 C          63.9562   85.5144   16.1542 C.3     1  UNL1        0.2525
     20 O          64.4377   85.0938   14.7973 O.3     1  UNL1       -0.4717
     21 C          64.2928   87.8934   13.7289 C.2     1  UNL1        0.0030
     22 C          63.9614   89.3254   13.4298 C.2     1  UNL1        0.0001
     23 C          64.7169   90.4281   14.1105 C.ar    1  UNL1        0.0001
     24 C          65.8400   91.1199   13.3963 C.ar    1  UNL1        0.0013
     25 C          66.5955   92.2225   14.0770 C.ar    1  UNL1        0.0158
     26 C          66.2279   92.6334   15.4720 C.ar    1  UNL1        0.0644
     27 C          65.1049   91.9416   16.1863 C.ar    1  UNL1        0.0158
     28 C          64.3493   90.8389   15.5056 C.ar    1  UNL1        0.0013
     29 N          66.9834   93.7360   16.1528 N.pl3   1  UNL1       -0.2187
     30 H          66.4947   94.4622   16.6033 H       1  UNL1        0.1734
     31 S          68.4834   93.7320   16.1471 S.O2    1  UNL1        0.0558
     32 C          69.9834   93.7281   16.1414 C.3     1  UNL1        0.1996
     33 O          68.4807   92.2627   16.4489 O.2     1  UNL1       -0.1544
     34 O          68.4862   95.2013   15.8452 O.2     1  UNL1       -0.1544
@<TRIPOS>BOND
     1    19    20    1
     2    20     1    1
     3     1     2   ar
     4     2    21    1
     5    21    22    2
     6    22    23    1
     7    23    24   ar
     8    24    25   ar
     9    25    26   ar
    10    26    29    1
    11    29    31    1
    12    31    32    1
    13    31    33    2
    14    31    34    2
    15    26    27   ar
    16    27    28   ar
    17     2     3   ar
    18     3     4   ar
    19     4     7    1
    20     7     8    1
    21     8     9    2
    22     9    10    1
    23     9    11    1
    24    11    12    2
    25    12    13    1
    26    13    14    2
    27     4     5   ar
    28     5     6   ar
    29     6    15    1
    30    15    16    1
    31    15    17    1
    32    15    18    1
    33     6     1   ar
    34    28    23   ar
    35    13     7    1
    36    29    30    1
@<TRIPOS>MOLECULE
*****
 34 36 0 0 0
SMALL
GASTEIGER

@<TRIPOS>ATOM
      1 C          62.1894   87.7681   11.2869 C.ar    1  UNL1        0.1346
      2 C          63.1331   87.2609   12.3367 C.ar    1  UNL1        0.0334
      3 C          63.2626   85.7863   12.5795 C.ar    1  UNL1       -0.0005
      4 C          62.4485   84.8190   11.7724 C.ar    1  UNL1       -0.0098
      5 C          61.5048   85.3262   10.7226 C.ar    1  UNL1       -0.0048
      6 C          61.3752   86.8007   10.4798 C.ar    1  UNL1        0.0109
      7 C          62.5780   83.3444   12.0152 C.3     1  UNL1        0.1249
      8 C          61.9352   82.7234   13.2198 C.2     1  UNL1        0.0181
      9 C          62.0647   81.2488   13.4626 C.2     1  UNL1        0.1532
     10 F          61.4219   80.6277   14.6672 F       1  UNL1       -0.2031
     11 C          62.8370   80.3953   12.5008 C.2     1  UNL1        0.1179
     12 N          63.4798   81.0164   11.2962 N.am    1  UNL1       -0.1750
     13 C          63.3503   82.4910   11.0534 C.2     1  UNL1        0.2535
     14 O          63.9931   83.1120    9.8487 O.2     1  UNL1       -0.2723
     15 C          60.4315   87.3079    9.4300 C.3     1  UNL1        0.0218
     16 C          61.1946   86.5554    8.3805 C.3     1  UNL1        0.0045
     17 C          59.6684   88.0605   10.4794 C.3     1  UNL1        0.0045
     18 C          59.4878   87.8151    8.3801 C.3     1  UNL1        0.0045
     19 C          62.7471   89.8725    9.8690 C.3     1  UNL1        0.2525
     20 O          62.0599   89.2426   11.0441 O.3     1  UNL1       -0.4717
     21 C          63.9473   88.2282   13.1438 C.2     1  UNL1        0.0030
     22 C          63.6990   89.7024   13.0212 C.2     1  UNL1        0.0001
     23 C          64.5132   90.6698   13.8283 C.ar    1  UNL1        0.0001
     24 C          65.6279   91.4358   13.1796 C.ar    1  UNL1        0.0013
     25 C          66.4420   92.4032   13.9866 C.ar    1  UNL1        0.0158
     26 C          66.1415   92.6045   15.4424 C.ar    1  UNL1        0.0644
     27 C          65.0269   91.8385   16.0911 C.ar    1  UNL1        0.0158
     28 C          64.2127   90.8711   15.2840 C.ar    1  UNL1        0.0013
     29 N          66.9557   93.5718   16.2494 N.pl3   1  UNL1       -0.2187
     30 H          66.5073   94.2228   16.8364 H       1  UNL1        0.1734
     31 S          68.4530   93.5475   16.1622 S.O2    1  UNL1        0.0558
     32 C          69.9502   93.5231   16.0749 C.3     1  UNL1        0.1996
     33 O          68.4623   95.0259   15.9089 O.2     1  UNL1       -0.1544
     34 O          68.4437   92.0691   16.4154 O.2     1  UNL1       -0.1544
@<TRIPOS>BOND
     1    19    20    1
     2    20     1    1
     3     1     2   ar
     4     2    21    1
     5    21    22    2
     6    22    23    1
     7    23    24   ar
     8    24    25   ar
     9    25    26   ar
    10    26    29    1
    11    29    31    1
    12    31    32    1
    13    31    33    2
    14    31    34    2
    15    26    27   ar
    16    27    28   ar
    17     2     3   ar
    18     3     4   ar
    19     4     7    1
    20     7     8    1
    21     8     9    2
    22     9    10    1
    23     9    11    1
    24    11    12    2
    25    12    13    1
    26    13    14    2
    27     4     5   ar
    28     5     6   ar
    29     6    15    1
    30    15    16    1
    31    15    17    1
    32    15    18    1
    33     6     1   ar
    34    28    23   ar
    35    13     7    1
    36    29    30    1
@<TRIPOS>MOLECULE
*****
 34 36 0 0 0
SMALL
GASTEIGER

@<TRIPOS>ATOM
      1 C          63.5654   85.1676   13.5962 C.ar    1  UNL1        0.1346
      2 C          63.5656   86.5431   12.9979 C.ar    1  UNL1        0.0334
      3 C          62.8551   86.7972   11.7015 C.ar    1  UNL1       -0.0005
      4 C          62.1443   85.6758   11.0035 C.ar    1  UNL1       -0.0098
      5 C          62.1441   84.3003   11.6018 C.ar    1  UNL1       -0.0048
      6 C          62.8547   84.0462   12.8982 C.ar    1  UNL1        0.0109
      7 C          61.4337   85.9299    9.7071 C.3     1  UNL1        0.1249
      8 C          60.2083   86.7945    9.6805 C.2     1  UNL1        0.0181
      9 C          59.4978   87.0486    8.3841 C.2     1  UNL1        0.1532
     10 F          58.2723   87.9133    8.3575 F       1  UNL1       -0.2031
     11 C          60.0126   86.4381    7.1144 C.2     1  UNL1        0.1179
     12 N          61.2380   85.5735    7.1411 N.am    1  UNL1       -0.1750
     13 C          61.9486   85.3194    8.4375 C.2     1  UNL1        0.2535
     14 O          63.1740   84.4547    8.4641 O.2     1  UNL1       -0.2723
     15 C          62.8544   82.6707   13.4965 C.3     1  UNL1        0.0218
     16 C          61.7985   83.0957   14.4733 C.3     1  UNL1        0.0045
     17 C          63.9104   82.2456   12.5197 C.3     1  UNL1        0.0045
     18 C          62.8542   81.2952   14.0948 C.3     1  UNL1        0.0045
     19 C          63.7515   85.5102   16.1648 C.3     1  UNL1        0.2525
     20 O          64.2760   84.9135   14.8926 O.3     1  UNL1       -0.4717
     21 C          64.2764   87.6645   13.6959 C.2     1  UNL1        0.0030
     22 C          63.9194   89.0878   13.3845 C.2     1  UNL1        0.0001
     23 C          64.6302   90.2092   14.0825 C.ar    1  UNL1        0.0001
     24 C          64.2237   90.6059   15.4708 C.ar    1  UNL1        0.0013
     25 C          64.9344   91.7273   16.1688 C.ar    1  UNL1        0.0158
     26 C          66.0516   92.4521   15.4785 C.ar    1  UNL1        0.0644
     27 C          66.4581   92.0554   14.0902 C.ar    1  UNL1        0.0158
     28 C          65.7474   90.9340   13.3922 C.ar    1  UNL1        0.0013
     29 N          66.7623   93.5735   16.1765 N.pl3   1  UNL1       -0.2187
     30 H          66.2462   94.2555   16.6642 H       1  UNL1        0.1734
     31 S          68.2594   93.6560   16.1314 S.O2    1  UNL1        0.0558
     32 C          69.7565   93.7385   16.0864 C.3     1  UNL1        0.1996
     33 O          68.1666   95.0647   15.6246 O.2     1  UNL1       -0.1544
     34 O          68.3523   92.2473   16.6382 O.2     1  UNL1       -0.1544
@<TRIPOS>BOND
     1    19    20    1
     2    20     1    1
     3     1     2   ar
     4     2    21    1
     5    21    22    2
     6    22    23    1
     7    23    24   ar
     8    24    25   ar
     9    25    26   ar
    10    26    29    1
    11    29    31    1
    12    31    32    1
    13    31    33    2
    14    31    34    2
    15    26    27   ar
    16    27    28   ar
    17     2     3   ar
    18     3     4   ar
    19     4     7    1
    20     7     8    1
    21     8     9    2
    22     9    10    1
    23     9    11    1
    24    11    12    2
    25    12    13    1
    26    13    14    2
    27     4     5   ar
    28     5     6   ar
    29     6    15    1
    30    15    16    1
    31    15    17    1
    32    15    18    1
    33     6     1   ar
    34    28    23   ar
    35    13     7    1
    36    29    30    1
@<TRIPOS>MOLECULE
*****
 34 36 0 0 0
SMALL
GASTEIGER

@<TRIPOS>ATOM
      1 C          63.3899   87.5560   13.2587 C.ar    1  UNL1        0.1346
      2 C          63.4461   88.8788   12.5538 C.ar    1  UNL1        0.0334
      3 C          64.2392   90.0085   13.1411 C.ar    1  UNL1       -0.0005
      4 C          64.9760   89.8153   14.4332 C.ar    1  UNL1       -0.0098
      5 C          64.9199   88.4925   15.1381 C.ar    1  UNL1       -0.0048
      6 C          64.1268   87.3628   14.5508 C.ar    1  UNL1        0.0109
      7 C          65.7691   90.9450   15.0205 C.3     1  UNL1        0.1249
      8 C          67.1936   91.1584   14.6019 C.2     1  UNL1        0.0181
      9 C          67.9867   92.2881   15.1891 C.2     1  UNL1        0.1532
     10 F          69.4112   92.5015   14.7705 F       1  UNL1       -0.2031
     11 C          67.3552   93.2043   16.1950 C.2     1  UNL1        0.1179
     12 N          65.9308   92.9909   16.6136 N.am    1  UNL1       -0.1750
     13 C          65.1377   91.8612   16.0263 C.2     1  UNL1        0.2535
     14 O          63.7131   91.6478   16.4449 O.2     1  UNL1       -0.2723
     15 C          64.0707   86.0399   15.2558 C.3     1  UNL1        0.0218
     16 C          62.9683   86.5544   16.1333 C.3     1  UNL1        0.0045
     17 C          65.1730   85.5254   14.3782 C.3     1  UNL1        0.0045
     18 C          64.0145   84.7171   15.9607 C.3     1  UNL1        0.0045
     19 C          63.2508   85.4628   11.7259 C.3     1  UNL1        0.2525
     20 O          62.5968   86.4263   12.6714 O.3     1  UNL1       -0.4717
     21 C          62.7092   89.0720   11.2616 C.2     1  UNL1        0.0030
     22 C          61.3205   88.5279   11.1016 C.2     1  UNL1        0.0001
     23 C          60.5836   88.7211    9.8095 C.ar    1  UNL1        0.0001
     24 C          60.0868   87.5304    9.0441 C.ar    1  UNL1        0.0013
     25 C          59.3499   87.7236    7.7520 C.ar    1  UNL1        0.0158
     26 C          59.1097   89.1074    7.2252 C.ar    1  UNL1        0.0644
     27 C          59.6065   90.2980    7.9905 C.ar    1  UNL1        0.0158
     28 C          60.3434   90.1048    9.2827 C.ar    1  UNL1        0.0013
     29 N          58.3728   89.3006    5.9331 N.pl3   1  UNL1       -0.2187
     30 H          57.8910   88.5460    5.5236 H       1  UNL1        0.1734
     31 S          58.3700   90.6436    5.2648 S.O2    1  UNL1        0.0558
     32 C          58.3670   91.9865    4.5966 C.3     1  UNL1        0.1996
     33 O          56.8877   90.7433    5.4717 O.2     1  UNL1       -0.1544
     34 O          59.8522   90.5438    5.0579 O.2     1  UNL1       -0.1544
@<TRIPOS>BOND
     1    19    20    1
     2    20     1    1
     3     1     2   ar
     4     2    21    1
     5    21    22    2
     6    22    23    1
     7    23    24   ar
     8    24    25   ar
     9    25    26   ar
    10    26    29    1
    11    29    31    1
    12    31    32    1
    13    31    33    2
    14    31    34    2
    15    26    27   ar
    16    27    28   ar
    17     2     3   ar
    18     3     4   ar
    19     4     7    1
    20     7     8    1
    21     8     9    2
    22     9    10    1
    23     9    11    1
    24    11    12    2
    25    12    13    1
    26    13    14    2
    27     4     5   ar
    28     5     6   ar
    29     6    15    1
    30    15    16    1
    31    15    17    1
    32    15    18    1
    33     6     1   ar
    34    28    23   ar
    35    13     7    1
    36    29    30    1
@<TRIPOS>MOLECULE
*****
 34 36 0 0 0
SMALL
GASTEIGER

@<TRIPOS>ATOM
      1 C          59.0246   94.3603   -0.4151 C.ar    1  UNL1        0.1346
      2 C          60.0476   93.8478    0.5548 C.ar    1  UNL1        0.0334
      3 C          61.4606   94.3468    0.4880 C.ar    1  UNL1       -0.0005
      4 C          61.8506   95.3582   -0.5488 C.ar    1  UNL1       -0.0098
      5 C          60.8276   95.8706   -1.5187 C.ar    1  UNL1       -0.0048
      6 C          59.4146   95.3717   -1.4518 C.ar    1  UNL1        0.0109
      7 C          63.2636   95.8571   -0.6156 C.3     1  UNL1        0.1249
      8 C          63.9875   95.8860   -1.9290 C.2     1  UNL1        0.0181
      9 C          65.4005   96.3849   -1.9959 C.2     1  UNL1        0.1532
     10 F          66.1243   96.4137   -3.3094 F       1  UNL1       -0.2031
     11 C          66.0896   96.8550   -0.7493 C.2     1  UNL1        0.1179
     12 N          65.3658   96.8261    0.5642 N.am    1  UNL1       -0.1750
     13 C          63.9528   96.3272    0.6310 C.2     1  UNL1        0.2535
     14 O          63.2289   96.2984    1.9445 O.2     1  UNL1       -0.2723
     15 C          58.3915   95.8842   -2.4218 C.3     1  UNL1        0.0218
     16 C          58.8829   94.9125   -3.4534 C.3     1  UNL1        0.0045
     17 C          57.9002   96.8560   -1.3902 C.3     1  UNL1        0.0045
     18 C          57.3686   96.3967   -3.3918 C.3     1  UNL1        0.0045
     19 C          57.2079   92.6453   -1.1282 C.3     1  UNL1        0.2525
     20 O          57.6116   93.8613   -0.3482 O.3     1  UNL1       -0.4717
     21 C          59.6576   92.8363    1.5917 C.2     1  UNL1        0.0030
     22 C          60.0866   93.0200    3.0172 C.2     1  UNL1        0.0001
     23 C          59.6966   92.0087    4.0540 C.ar    1  UNL1        0.0001
     24 C          60.7433   91.1370    4.6824 C.ar    1  UNL1        0.0013
     25 C          60.3533   90.1256    5.7192 C.ar    1  UNL1        0.0158
     26 C          58.9168   89.9858    6.1277 C.ar    1  UNL1        0.0644
     27 C          57.8702   90.8574    5.4994 C.ar    1  UNL1        0.0158
     28 C          58.2601   91.8689    4.4625 C.ar    1  UNL1        0.0013
     29 N          58.5269   88.9744    7.1645 N.pl3   1  UNL1       -0.2187
     30 H          57.5756   88.7942    7.3431 H       1  UNL1        0.1734
     31 S          59.5863   88.2376    7.9293 S.O2    1  UNL1        0.0558
     32 C          60.6456   87.5008    8.6940 C.3     1  UNL1        0.1996
     33 O          59.3032   87.0006    7.1295 O.2     1  UNL1       -0.1544
     34 O          59.8693   89.4746    8.7291 O.2     1  UNL1       -0.1544
@<TRIPOS>BOND
     1    19    20    1
     2    20     1    1
     3     1     2   ar
     4     2    21    1
     5    21    22    2
     6    22    23    1
     7    23    24   ar
     8    24    25   ar
     9    25    26   ar
    10    26    29    1
    11    29    31    1
    12    31    32    1
    13    31    33    2
    14    31    34    2
    15    26    27   ar
    16    27    28   ar
    17     2     3   ar
    18     3     4   ar
    19     4     7    1
    20     7     8    1
    21     8     9    2
    22     9    10    1
    23     9    11    1
    24    11    12    2
    25    12    13    1
    26    13    14    2
    27     4     5   ar
    28     5     6   ar
    29     6    15    1
    30    15    16    1
    31    15    17    1
    32    15    18    1
    33     6     1   ar
    34    28    23   ar
    35    13     7    1
    36    29    30    1
@<TRIPOS>MOLECULE
*****
 34 36 0 0 0
SMALL
GASTEIGER

@<TRIPOS>ATOM
      1 C          63.8108   90.3023   13.1133 C.ar    1  UNL1        0.1346
      2 C          63.1248   89.2054   12.3543 C.ar    1  UNL1        0.0334
      3 C          63.1970   87.7916   12.8501 C.ar    1  UNL1       -0.0005
      4 C          63.9552   87.4746   14.1049 C.ar    1  UNL1       -0.0098
      5 C          64.6412   88.5715   14.8639 C.ar    1  UNL1       -0.0048
      6 C          64.5690   89.9853   14.3681 C.ar    1  UNL1        0.0109
      7 C          64.0274   86.0607   14.6007 C.3     1  UNL1        0.1249
      8 C          64.4837   84.9662   13.6821 C.2     1  UNL1        0.0181
      9 C          64.5559   83.5524   14.1779 C.2     1  UNL1        0.1532
     10 F          65.0122   82.4578   13.2592 F       1  UNL1       -0.2031
     11 C          64.1718   83.2330   15.5922 C.2     1  UNL1        0.1179
     12 N          63.7155   84.3275   16.5108 N.am    1  UNL1       -0.1750
     13 C          63.6433   85.7414   16.0150 C.2     1  UNL1        0.2535
     14 O          63.1869   86.8359   16.9337 O.2     1  UNL1       -0.2723
     15 C          65.2550   91.0823   15.1273 C.3     1  UNL1        0.0218
     16 C          66.4642   90.9311   14.2527 C.3     1  UNL1        0.0045
     17 C          64.0458   91.2334   16.0018 C.3     1  UNL1        0.0045
     18 C          65.9411   92.1791   15.8863 C.3     1  UNL1        0.0045
     19 C          64.6710   92.1811   11.5386 C.3     1  UNL1        0.2525
     20 O          63.7386   91.7162   12.6175 O.3     1  UNL1       -0.4717
     21 C          62.3665   89.5223   11.0994 C.2     1  UNL1        0.0030
     22 C          61.4312   88.5075   10.5117 C.2     1  UNL1        0.0001
     23 C          60.6730   88.8244    9.2569 C.ar    1  UNL1        0.0001
     24 C          60.5745   90.2425    8.7780 C.ar    1  UNL1        0.0013
     25 C          59.8163   90.5594    7.5231 C.ar    1  UNL1        0.0158
     26 C          59.1565   89.4582    6.7472 C.ar    1  UNL1        0.0644
     27 C          59.2549   88.0401    7.2261 C.ar    1  UNL1        0.0158
     28 C          60.0132   87.7232    8.4810 C.ar    1  UNL1        0.0013
     29 N          58.3982   89.7751    5.4924 N.pl3   1  UNL1       -0.2187
     30 H          57.8368   89.0859    5.0692 H       1  UNL1        0.1734
     31 S          58.4954   91.1420    4.8823 S.O2    1  UNL1        0.0558
     32 C          58.5926   92.5088    4.2722 C.3     1  UNL1        0.1996
     33 O          59.9619   90.9326    4.6467 O.2     1  UNL1       -0.1544
     34 O          57.0289   91.3514    5.1179 O.2     1  UNL1       -0.1544
@<TRIPOS>BOND
     1    19    20    1
     2    20     1    1
     3     1     2   ar
     4     2    21    1
     5    21    22    2
     6    22    23    1
     7    23    24   ar
     8    24    25   ar
     9    25    26   ar
    10    26    29    1
    11    29    31    1
    12    31    32    1
    13    31    33    2
    14    31    34    2
    15    26    27   ar
    16    27    28   ar
    17     2     3   ar
    18     3     4   ar
    19     4     7    1
    20     7     8    1
    21     8     9    2
    22     9    10    1
    23     9    11    1
    24    11    12    2
    25    12    13    1
    26    13    14    2
    27     4     5   ar
    28     5     6   ar
    29     6    15    1
    30    15    16    1
    31    15    17    1
    32    15    18    1
    33     6     1   ar
    34    28    23   ar
    35    13     7    1
    36    29    30    1
@<TRIPOS>MOLECULE
*****
 34 36 0 0 0
SMALL
GASTEIGER

@<TRIPOS>ATOM
      1 C          63.2216   86.0088   12.8694 C.ar    1  UNL1        0.1346
      2 C          62.5241   85.5609   11.6193 C.ar    1  UNL1        0.0334
      3 C          62.4049   84.0979   11.3100 C.ar    1  UNL1       -0.0005
      4 C          62.9833   83.0829   12.2509 C.ar    1  UNL1       -0.0098
      5 C          63.6807   83.5309   13.5010 C.ar    1  UNL1       -0.0048
      6 C          63.7999   84.9938   13.8102 C.ar    1  UNL1        0.0109
      7 C          62.8641   81.6200   11.9416 C.3     1  UNL1        0.1249
      8 C          63.0909   81.1282   10.5428 C.2     1  UNL1        0.0181
      9 C          62.9717   79.6653   10.2336 C.2     1  UNL1        0.1532
     10 F          63.1985   79.1735    8.8347 F       1  UNL1       -0.2031
     11 C          62.6258   78.6941   11.3231 C.2     1  UNL1        0.1179
     12 N          62.3990   79.1859   12.7219 N.am    1  UNL1       -0.1750
     13 C          62.5182   80.6489   13.0312 C.2     1  UNL1        0.2535
     14 O          62.2914   81.1406   14.4301 O.2     1  UNL1       -0.2723
     15 C          64.4974   85.4417   15.0604 C.3     1  UNL1        0.0218
     16 C          63.1790   85.5066   15.7727 C.3     1  UNL1        0.0045
     17 C          65.8159   85.3768   14.3481 C.3     1  UNL1        0.0045
     18 C          65.1949   85.8896   16.3106 C.3     1  UNL1        0.0045
     19 C          63.1164   88.4875   12.0979 C.3     1  UNL1        0.2525
     20 O          63.3407   87.4717   13.1786 O.3     1  UNL1       -0.4717
     21 C          61.9457   86.5759   10.6783 C.2     1  UNL1        0.0030
     22 C          60.7963   86.2048    9.7889 C.2     1  UNL1        0.0001
     23 C          60.2179   87.2197    8.8480 C.ar    1  UNL1        0.0001
     24 C          59.3435   86.7771    7.7123 C.ar    1  UNL1        0.0013
     25 C          58.7652   87.7920    6.7714 C.ar    1  UNL1        0.0158
     26 C          59.0611   89.2496    6.9661 C.ar    1  UNL1        0.0644
     27 C          59.9354   89.6922    8.1017 C.ar    1  UNL1        0.0158
     28 C          60.5139   88.6773    9.0426 C.ar    1  UNL1        0.0013
     29 N          58.4827   90.2645    6.0252 N.pl3   1  UNL1       -0.2187
     30 H          57.5065   90.3693    5.9536 H       1  UNL1        0.1734
     31 S          59.3919   91.1198    5.1933 S.O2    1  UNL1        0.0558
     32 C          60.3010   91.9750    4.3614 C.3     1  UNL1        0.1996
     33 O          60.5019   90.1301    5.3889 O.2     1  UNL1       -0.1544
     34 O          58.2818   92.1095    4.9976 O.2     1  UNL1       -0.1544
@<TRIPOS>BOND
     1    19    20    1
     2    20     1    1
     3     1     2   ar
     4     2    21    1
     5    21    22    2
     6    22    23    1
     7    23    24   ar
     8    24    25   ar
     9    25    26   ar
    10    26    29    1
    11    29    31    1
    12    31    32    1
    13    31    33    2
    14    31    34    2
    15    26    27   ar
    16    27    28   ar
    17     2     3   ar
    18     3     4   ar
    19     4     7    1
    20     7     8    1
    21     8     9    2
    22     9    10    1
    23     9    11    1
    24    11    12    2
    25    12    13    1
    26    13    14    2
    27     4     5   ar
    28     5     6   ar
    29     6    15    1
    30    15    16    1
    31    15    17    1
    32    15    18    1
    33     6     1   ar
    34    28    23   ar
    35    13     7    1
    36    29    30    1
