@<TRIPOS>MOLECULE
*****
 35 38 0 0 0
SMALL
GASTEIGER

@<TRIPOS>ATOM
      1 C          63.5875   89.6470   12.9255 C.ar    1  UNL1        0.1444
      2 C          63.9245   90.8495   12.0946 C.ar    1  UNL1        0.0517
      3 C          64.8806   91.8795   12.6190 C.ar    1  UNL1        0.0536
      4 C          65.4997   91.7070   13.9743 C.ar    1  UNL1        0.0150
      5 C          65.1627   90.5045   14.8052 C.ar    1  UNL1        0.0090
      6 C          64.2066   89.4745   14.2808 C.ar    1  UNL1        0.0891
      7 C          63.8696   88.2720   15.1118 C.ar    1  UNL1        0.2541
      8 N          63.1681   88.2850   16.4376 N.ar    1  UNL1       -0.1057
      9 N          63.0399   86.8664   16.9080 N.ar    1  UNL1       -0.0923
     10 C          63.6621   85.9767   15.8729 C.ar    1  UNL1        0.3086
     11 O          64.1749   86.8455   14.7628 O.2     1  UNL1       -0.4047
     12 N          63.7552   84.4810   15.9367 N.pl3   1  UNL1       -0.2871
     13 H          64.5751   84.0528   16.2738 H       1  UNL1        0.1512
     14 C          62.5991   83.6378   15.4871 C.3     1  UNL1        0.0925
     15 C          62.8298   82.4827   14.5583 C.3     1  UNL1        0.0386
     16 C          63.9018   82.5639   13.5124 C.3     1  UNL1        0.0738
     17 N          63.6366   83.2785   12.2204 N.3     1  UNL1       -0.2726
     18 C          62.7727   84.5045   12.2050 C.3     1  UNL1        0.0721
     19 C          62.5075   85.2191   10.9131 C.3     1  UNL1        0.0174
     20 C          63.1062   84.7075    9.6365 C.3     1  UNL1        0.0029
     21 C          63.9701   83.4814    9.6518 C.3     1  UNL1        0.0174
     22 C          64.2354   82.7668   10.9438 C.3     1  UNL1        0.0721
     23 N          65.2176   93.0820   11.7880 N.am    1  UNL1       -0.2802
     24 C          66.4402   93.0743   10.9189 C.2     1  UNL1        0.2517
     25 O          67.3258   91.8642   10.8809 O.2     1  UNL1       -0.2697
     26 H          64.6364   93.8762   11.8129 H       1  UNL1        0.1552
     27 C          66.7773   94.2767   10.0880 C.ar    1  UNL1        0.0811
     28 C          67.2731   94.1025    8.6831 C.ar    1  UNL1        0.0068
     29 C          67.6102   95.3050    7.8521 C.ar    1  UNL1        0.0003
     30 C          67.4513   96.6817    8.4260 C.ar    1  UNL1        0.0023
     31 C          66.9554   96.8560    9.8309 C.ar    1  UNL1        0.0298
     32 C          66.6184   95.6535   10.6619 C.ar    1  UNL1        0.1445
     33 F          66.1225   95.8278   12.0668 F       1  UNL1       -0.2040
     34 C          61.9665   88.8188   11.0717 C.3     1  UNL1        0.2525
     35 O          62.6314   88.6170   12.4011 O.3     1  UNL1       -0.4712
@<TRIPOS>BOND
     1    34    35    1
     2    35     1    1
     3     1     2   ar
     4     2     3   ar
     5     3    23    1
     6    23    24   am
     7    24    25    2
     8    24    27    1
     9    27    28   ar
    10    28    29   ar
    11    29    30   ar
    12    30    31   ar
    13    31    32   ar
    14    32    33    1
    15     3     4   ar
    16     4     5   ar
    17     5     6   ar
    18     6     7    1
    19     7     8   ar
    20     8     9   ar
    21     9    10   ar
    22    10    12    1
    23    12    14    1
    24    14    15    1
    25    15    16    1
    26    16    17    1
    27    17    18    1
    28    18    19    1
    29    19    20    1
    30    20    21    1
    31    21    22    1
    32    10    11   ar
    33     6     1   ar
    34    11     7   ar
    35    32    27   ar
    36    22    17    1
    37    23    26    1
    38    12    13    1
@<TRIPOS>MOLECULE
*****
 35 38 0 0 0
SMALL
GASTEIGER

@<TRIPOS>ATOM
      1 C          63.5662   88.9347   13.1115 C.ar    1  UNL1        0.1444
      2 C          63.2294   87.6233   12.4659 C.ar    1  UNL1        0.0517
      3 C          63.3968   86.3450   13.2327 C.ar    1  UNL1        0.0536
      4 C          63.9009   86.3780   14.6450 C.ar    1  UNL1        0.0150
      5 C          64.2378   87.6894   15.2906 C.ar    1  UNL1        0.0090
      6 C          64.0704   88.9677   14.5238 C.ar    1  UNL1        0.0891
      7 C          64.4073   90.2792   15.1695 C.ar    1  UNL1        0.2541
      8 N          63.5139   91.0692   16.0793 N.ar    1  UNL1       -0.1057
      9 N          64.2511   92.3090   16.4908 N.ar    1  UNL1       -0.0923
     10 C          65.6001   92.2853   15.8352 C.ar    1  UNL1        0.3086
     11 O          65.6966   91.0307   15.0186 O.2     1  UNL1       -0.4047
     12 N          66.6655   93.3322   15.9722 N.pl3   1  UNL1       -0.2871
     13 H          66.8947   93.6880   16.8611 H       1  UNL1        0.1512
     14 C          67.3818   93.8371   14.7548 C.3     1  UNL1        0.0925
     15 C          66.5990   94.3603   13.5871 C.3     1  UNL1        0.0386
     16 C          66.1713   93.4280   12.4927 C.3     1  UNL1        0.0738
     17 N          66.8888   93.4384   11.1754 N.3     1  UNL1       -0.2726
     18 C          67.5875   92.2023   10.6921 C.3     1  UNL1        0.0721
     19 C          68.3050   92.2128    9.3749 C.3     1  UNL1        0.0174
     20 C          68.3238   93.4595    8.5409 C.3     1  UNL1        0.0029
     21 C          67.6251   94.6956    9.0243 C.3     1  UNL1        0.0174
     22 C          66.9076   94.6852   10.3416 C.3     1  UNL1        0.0721
     23 N          63.0599   85.0336   12.5870 N.am    1  UNL1       -0.2802
     24 C          63.8484   83.8044   12.9299 C.2     1  UNL1        0.2517
     25 O          64.9736   83.8867   13.9184 O.2     1  UNL1       -0.2697
     26 H          62.3214   84.9796   11.9382 H       1  UNL1        0.1552
     27 C          63.5116   82.4930   12.2843 C.ar    1  UNL1        0.0811
     28 C          62.9282   81.3811   13.1048 C.ar    1  UNL1        0.0068
     29 C          62.5915   80.0696   12.4591 C.ar    1  UNL1        0.0003
     30 C          62.8380   79.8703   10.9930 C.ar    1  UNL1        0.0023
     31 C          63.4213   80.9822   10.1725 C.ar    1  UNL1        0.0298
     32 C          63.7581   82.2936   10.8181 C.ar    1  UNL1        0.1445
     33 F          64.3415   83.4056    9.9977 F       1  UNL1       -0.2040
     34 C          62.2294   90.3863   11.4217 C.3     1  UNL1        0.2525
     35 O          63.3989   90.2130   12.3448 O.3     1  UNL1       -0.4712
@<TRIPOS>BOND
     1    34    35    1
     2    35     1    1
     3     1     2   ar
     4     2     3   ar
     5     3    23    1
     6    23    24   am
     7    24    25    2
     8    24    27    1
     9    27    28   ar
    10    28    29   ar
    11    29    30   ar
    12    30    31   ar
    13    31    32   ar
    14    32    33    1
    15     3     4   ar
    16     4     5   ar
    17     5     6   ar
    18     6     7    1
    19     7     8   ar
    20     8     9   ar
    21     9    10   ar
    22    10    12    1
    23    12    14    1
    24    14    15    1
    25    15    16    1
    26    16    17    1
    27    17    18    1
    28    18    19    1
    29    19    20    1
    30    20    21    1
    31    21    22    1
    32    10    11   ar
    33     6     1   ar
    34    11     7   ar
    35    32    27   ar
    36    22    17    1
    37    23    26    1
    38    12    13    1
@<TRIPOS>MOLECULE
*****
 35 38 0 0 0
SMALL
GASTEIGER

@<TRIPOS>ATOM
      1 C          61.9051   88.4278   11.2776 C.ar    1  UNL1        0.1444
      2 C          62.9026   88.8224   12.3260 C.ar    1  UNL1        0.0517
      3 C          63.5854   90.1557   12.2475 C.ar    1  UNL1        0.0536
      4 C          63.2706   91.0943   11.1207 C.ar    1  UNL1        0.0150
      5 C          62.2731   90.6997   10.0723 C.ar    1  UNL1        0.0090
      6 C          61.5903   89.3664   10.1508 C.ar    1  UNL1        0.0891
      7 C          60.5928   88.9718    9.1023 C.ar    1  UNL1        0.2541
      8 N          59.8560   87.6671    9.0329 N.ar    1  UNL1       -0.1057
      9 N          58.9647   87.7016    7.8269 N.ar    1  UNL1       -0.0923
     10 C          59.1506   89.0277    7.1509 C.ar    1  UNL1        0.3086
     11 O          60.1568   89.8127    7.9392 O.2     1  UNL1       -0.4047
     12 N          58.4529   89.4880    5.9054 N.pl3   1  UNL1       -0.2871
     13 H          57.9780   88.8381    5.3385 H       1  UNL1        0.1512
     14 C          58.4787   90.9384    5.5237 C.3     1  UNL1        0.0925
     15 C          59.6590   91.4992    4.7875 C.3     1  UNL1        0.0386
     16 C          59.4819   92.6717    3.8688 C.3     1  UNL1        0.0738
     17 N          60.3794   92.8336    2.6778 N.3     1  UNL1       -0.2726
     18 C          61.8214   92.4300    2.7649 C.3     1  UNL1        0.0721
     19 C          62.7189   92.5920    1.5740 C.3     1  UNL1        0.0174
     20 C          62.1743   93.1576    0.2959 C.3     1  UNL1        0.0029
     21 C          60.7323   93.5612    0.2088 C.3     1  UNL1        0.0174
     22 C          59.8348   93.3992    1.3997 C.3     1  UNL1        0.0721
     23 N          64.5830   90.5503   13.2960 N.am    1  UNL1       -0.2802
     24 C          65.5875   91.6264   13.0082 C.2     1  UNL1        0.2517
     25 O          65.5945   92.3080   11.6719 O.2     1  UNL1       -0.2697
     26 H          64.5784   90.1030   14.1730 H       1  UNL1        0.1552
     27 C          66.5851   92.0211   14.0565 C.ar    1  UNL1        0.0811
     28 C          66.1142   92.4843   15.4033 C.ar    1  UNL1        0.0068
     29 C          67.1119   92.8790   16.4517 C.ar    1  UNL1        0.0003
     30 C          68.5803   92.8103   16.1533 C.ar    1  UNL1        0.0023
     31 C          69.0511   92.3470   14.8066 C.ar    1  UNL1        0.0298
     32 C          68.0536   91.9524   13.7582 C.ar    1  UNL1        0.1445
     33 F          68.5244   91.4891   12.4115 F       1  UNL1       -0.2040
     34 C          62.0270   85.8327   11.2545 C.3     1  UNL1        0.2525
     35 O          61.2223   87.0945   11.3560 O.3     1  UNL1       -0.4712
@<TRIPOS>BOND
     1    34    35    1
     2    35     1    1
     3     1     2   ar
     4     2     3   ar
     5     3    23    1
     6    23    24   am
     7    24    25    2
     8    24    27    1
     9    27    28   ar
    10    28    29   ar
    11    29    30   ar
    12    30    31   ar
    13    31    32   ar
    14    32    33    1
    15     3     4   ar
    16     4     5   ar
    17     5     6   ar
    18     6     7    1
    19     7     8   ar
    20     8     9   ar
    21     9    10   ar
    22    10    12    1
    23    12    14    1
    24    14    15    1
    25    15    16    1
    26    16    17    1
    27    17    18    1
    28    18    19    1
    29    19    20    1
    30    20    21    1
    31    21    22    1
    32    10    11   ar
    33     6     1   ar
    34    11     7   ar
    35    32    27   ar
    36    22    17    1
    37    23    26    1
    38    12    13    1
@<TRIPOS>MOLECULE
*****
 35 38 0 0 0
SMALL
GASTEIGER

@<TRIPOS>ATOM
      1 C          63.5160   87.7561   15.7176 C.ar    1  UNL1        0.1444
      2 C          63.1777   86.4331   15.0970 C.ar    1  UNL1        0.0517
      3 C          63.1825   86.2816   13.6047 C.ar    1  UNL1        0.0536
      4 C          63.5254   87.4531   12.7330 C.ar    1  UNL1        0.0150
      5 C          63.8637   88.7761   13.3536 C.ar    1  UNL1        0.0090
      6 C          63.8589   88.9276   14.8459 C.ar    1  UNL1        0.0891
      7 C          64.1972   90.2507   15.4665 C.ar    1  UNL1        0.2541
      8 N          63.3200   91.0404   16.3921 N.ar    1  UNL1       -0.1057
      9 N          64.0527   92.2941   16.7681 N.ar    1  UNL1       -0.0923
     10 C          65.3828   92.2793   16.0747 C.ar    1  UNL1        0.3086
     11 O          65.4721   91.0164   15.2703 O.2     1  UNL1       -0.4047
     12 N          66.4383   93.3409   16.1692 N.pl3   1  UNL1       -0.2871
     13 H          66.6306   93.7681   17.0351 H       1  UNL1        0.1512
     14 C          67.2006   93.7516   14.9445 C.3     1  UNL1        0.0925
     15 C          66.5235   93.7563   13.6060 C.3     1  UNL1        0.0386
     16 C          66.8558   92.7005   12.5937 C.3     1  UNL1        0.0738
     17 N          67.2506   93.0943   11.2012 N.3     1  UNL1       -0.2726
     18 C          68.0463   92.1486   10.3514 C.3     1  UNL1        0.0721
     19 C          68.4411   92.5425    8.9589 C.3     1  UNL1        0.0174
     20 C          68.0400   93.8821    8.4162 C.3     1  UNL1        0.0029
     21 C          67.2442   94.8278    9.2660 C.3     1  UNL1        0.0174
     22 C          66.8494   94.4340   10.6585 C.3     1  UNL1        0.0721
     23 N          62.8442   84.9585   12.9841 N.am    1  UNL1       -0.2802
     24 C          63.8076   83.8134   13.0876 C.2     1  UNL1        0.2517
     25 O          65.1092   83.9914   13.8116 O.2     1  UNL1       -0.2697
     26 H          61.9899   84.8416   12.5090 H       1  UNL1        0.1552
     27 C          63.4694   82.4903   12.4670 C.ar    1  UNL1        0.0811
     28 C          62.9355   81.3770   13.3188 C.ar    1  UNL1        0.0068
     29 C          62.5973   80.0539   12.6982 C.ar    1  UNL1        0.0003
     30 C          62.7930   79.8442   11.2259 C.ar    1  UNL1        0.0023
     31 C          63.3269   80.9575   10.3741 C.ar    1  UNL1        0.0298
     32 C          63.6651   82.2805   10.9947 C.ar    1  UNL1        0.1445
     33 F          64.1990   83.3939   10.1429 F       1  UNL1       -0.2040
     34 C          62.7564   86.9298   18.0607 C.3     1  UNL1        0.2525
     35 O          63.5112   87.9077   17.2100 O.3     1  UNL1       -0.4712
@<TRIPOS>BOND
     1    34    35    1
     2    35     1    1
     3     1     2   ar
     4     2     3   ar
     5     3    23    1
     6    23    24   am
     7    24    25    2
     8    24    27    1
     9    27    28   ar
    10    28    29   ar
    11    29    30   ar
    12    30    31   ar
    13    31    32   ar
    14    32    33    1
    15     3     4   ar
    16     4     5   ar
    17     5     6   ar
    18     6     7    1
    19     7     8   ar
    20     8     9   ar
    21     9    10   ar
    22    10    12    1
    23    12    14    1
    24    14    15    1
    25    15    16    1
    26    16    17    1
    27    17    18    1
    28    18    19    1
    29    19    20    1
    30    20    21    1
    31    21    22    1
    32    10    11   ar
    33     6     1   ar
    34    11     7   ar
    35    32    27   ar
    36    22    17    1
    37    23    26    1
    38    12    13    1
@<TRIPOS>MOLECULE
*****
 35 38 0 0 0
SMALL
GASTEIGER

@<TRIPOS>ATOM
      1 C          63.4651   87.2290   16.2155 C.ar    1  UNL1        0.1444
      2 C          63.3290   85.7921   15.8070 C.ar    1  UNL1        0.0517
      3 C          63.6038   85.3862   14.3893 C.ar    1  UNL1        0.0536
      4 C          64.0148   86.4170   13.3802 C.ar    1  UNL1        0.0150
      5 C          64.1510   87.8538   13.7888 C.ar    1  UNL1        0.0090
      6 C          63.8762   88.2598   15.2064 C.ar    1  UNL1        0.0891
      7 C          64.0124   89.6967   15.6149 C.ar    1  UNL1        0.2541
      8 N          63.0076   90.4903   16.3963 N.ar    1  UNL1       -0.1057
      9 N          63.5515   91.8763   16.5780 N.ar    1  UNL1       -0.0923
     10 C          64.8925   91.9394   15.9088 C.ar    1  UNL1        0.3086
     11 O          65.1773   90.5924   15.3136 O.2     1  UNL1       -0.4047
     12 N          65.7909   93.1389   15.8460 N.pl3   1  UNL1       -0.2871
     13 H          65.4291   94.0353   16.0329 H       1  UNL1        0.1512
     14 C          67.2406   92.9728   15.4983 C.3     1  UNL1        0.0925
     15 C          67.6882   93.0929   14.0717 C.3     1  UNL1        0.0386
     16 C          66.7060   92.8841   12.9574 C.3     1  UNL1        0.0738
     17 N          67.1252   93.1125   11.5353 N.3     1  UNL1       -0.2726
     18 C          66.6725   94.3440   10.8085 C.3     1  UNL1        0.0721
     19 C          67.0918   94.5724    9.3865 C.3     1  UNL1        0.0174
     20 C          67.9638   93.5693    8.6913 C.3     1  UNL1        0.0029
     21 C          68.4165   92.3378    9.4182 C.3     1  UNL1        0.0174
     22 C          67.9972   92.1093   10.8402 C.3     1  UNL1        0.0721
     23 N          63.4676   83.9492   13.9809 N.am    1  UNL1       -0.2802
     24 C          63.0510   83.6035   12.5820 C.2     1  UNL1        0.2517
     25 O          62.7706   84.6946   11.5916 O.2     1  UNL1       -0.2697
     26 H          63.6517   83.2331   14.6309 H       1  UNL1        0.1552
     27 C          62.9148   82.1666   12.1735 C.ar    1  UNL1        0.0811
     28 C          63.2342   81.7532   10.7674 C.ar    1  UNL1        0.0068
     29 C          63.0980   80.3162   10.3589 C.ar    1  UNL1        0.0003
     30 C          62.6424   79.2929   11.3565 C.ar    1  UNL1        0.0023
     31 C          62.3230   79.7064   12.7625 C.ar    1  UNL1        0.0298
     32 C          62.4592   81.1432   13.1710 C.ar    1  UNL1        0.1445
     33 F          62.1398   81.5567   14.5771 F       1  UNL1       -0.2040
     34 C          62.6359   86.6362   18.6052 C.3     1  UNL1        0.2525
     35 O          63.1903   87.6349   17.6331 O.3     1  UNL1       -0.4712
@<TRIPOS>BOND
     1    34    35    1
     2    35     1    1
     3     1     2   ar
     4     2     3   ar
     5     3    23    1
     6    23    24   am
     7    24    25    2
     8    24    27    1
     9    27    28   ar
    10    28    29   ar
    11    29    30   ar
    12    30    31   ar
    13    31    32   ar
    14    32    33    1
    15     3     4   ar
    16     4     5   ar
    17     5     6   ar
    18     6     7    1
    19     7     8   ar
    20     8     9   ar
    21     9    10   ar
    22    10    12    1
    23    12    14    1
    24    14    15    1
    25    15    16    1
    26    16    17    1
    27    17    18    1
    28    18    19    1
    29    19    20    1
    30    20    21    1
    31    21    22    1
    32    10    11   ar
    33     6     1   ar
    34    11     7   ar
    35    32    27   ar
    36    22    17    1
    37    23    26    1
    38    12    13    1
@<TRIPOS>MOLECULE
*****
 35 38 0 0 0
SMALL
GASTEIGER

@<TRIPOS>ATOM
      1 C          63.7719   86.6634   13.8236 C.ar    1  UNL1        0.1444
      2 C          63.4324   85.2487   13.4584 C.ar    1  UNL1        0.0517
      3 C          62.7664   84.9516   12.1476 C.ar    1  UNL1        0.0536
      4 C          62.4398   86.0693   11.2020 C.ar    1  UNL1        0.0150
      5 C          62.7793   87.4839   11.5672 C.ar    1  UNL1        0.0090
      6 C          63.4453   87.7810   12.8780 C.ar    1  UNL1        0.0891
      7 C          63.7848   89.1958   13.2431 C.ar    1  UNL1        0.2541
      8 N          63.2358   90.4304   12.5919 N.ar    1  UNL1       -0.1057
      9 N          63.8446   91.6219   13.2699 N.ar    1  UNL1       -0.0923
     10 C          64.7700   91.1236   14.3402 C.ar    1  UNL1        0.3086
     11 O          64.7330   89.6242   14.3236 O.2     1  UNL1       -0.4047
     12 N          65.5885   91.9753   15.2646 N.pl3   1  UNL1       -0.2871
     13 H          65.2693   92.1576   16.1779 H       1  UNL1        0.1512
     14 C          66.8934   92.5490   14.7976 C.3     1  UNL1        0.0925
     15 C          66.9153   93.8441   14.0412 C.3     1  UNL1        0.0386
     16 C          66.1824   93.9639   12.7379 C.3     1  UNL1        0.0738
     17 N          66.8941   93.6800   11.4483 N.3     1  UNL1       -0.2726
     18 C          67.4937   92.3269   11.2047 C.3     1  UNL1        0.0721
     19 C          68.2054   92.0430    9.9151 C.3     1  UNL1        0.0174
     20 C          68.3174   93.1123    8.8692 C.3     1  UNL1        0.0029
     21 C          67.7177   94.4654    9.1128 C.3     1  UNL1        0.0174
     22 C          67.0060   94.7494   10.4024 C.3     1  UNL1        0.0721
     23 N          62.4269   83.5369   11.7825 N.am    1  UNL1       -0.2802
     24 C          63.5152   82.5117   11.6616 C.2     1  UNL1        0.2517
     25 O          64.9430   82.9014   11.9058 O.2     1  UNL1       -0.2697
     26 H          61.4898   83.2812   11.6222 H       1  UNL1        0.1552
     27 C          63.1758   81.0970   11.2965 C.ar    1  UNL1        0.0811
     28 C          63.1839   80.6710    9.8582 C.ar    1  UNL1        0.0068
     29 C          62.8445   79.2562    9.4932 C.ar    1  UNL1        0.0003
     30 C          62.4969   78.2675   10.5663 C.ar    1  UNL1        0.0023
     31 C          62.4888   78.6935   12.0045 C.ar    1  UNL1        0.0298
     32 C          62.8282   80.1082   12.3696 C.ar    1  UNL1        0.1445
     33 F          62.8200   80.5342   13.8078 F       1  UNL1       -0.2040
     34 C          63.6407   86.9299   16.4046 C.3     1  UNL1        0.2525
     35 O          64.4379   86.9604   15.1344 O.3     1  UNL1       -0.4712
@<TRIPOS>BOND
     1    34    35    1
     2    35     1    1
     3     1     2   ar
     4     2     3   ar
     5     3    23    1
     6    23    24   am
     7    24    25    2
     8    24    27    1
     9    27    28   ar
    10    28    29   ar
    11    29    30   ar
    12    30    31   ar
    13    31    32   ar
    14    32    33    1
    15     3     4   ar
    16     4     5   ar
    17     5     6   ar
    18     6     7    1
    19     7     8   ar
    20     8     9   ar
    21     9    10   ar
    22    10    12    1
    23    12    14    1
    24    14    15    1
    25    15    16    1
    26    16    17    1
    27    17    18    1
    28    18    19    1
    29    19    20    1
    30    20    21    1
    31    21    22    1
    32    10    11   ar
    33     6     1   ar
    34    11     7   ar
    35    32    27   ar
    36    22    17    1
    37    23    26    1
    38    12    13    1
