@<TRIPOS>MOLECULE
*****
 30 32 0 0 0
SMALL
GASTEIGER

@<TRIPOS>ATOM
      1 N          64.6832   92.1652   12.3280 N.am    1  UNL1       -0.2972
      2 C          64.1969   90.9786   13.1061 C.2     1  UNL1        0.2430
      3 O          65.1667   90.1520   13.8976 O.2     1  UNL1       -0.2732
      4 H          64.0467   92.7077   11.8086 H       1  UNL1        0.1500
      5 C          66.1393   92.5252   12.3413 C.3     1  UNL1        0.1166
      6 C          65.9071   95.3237   11.2857 C.3     1  UNL1        0.0308
      7 C          66.7135   94.3043   10.5371 C.ar    1  UNL1       -0.0240
      8 C          67.4038   94.6841    9.2607 C.ar    1  UNL1       -0.0045
      9 C          68.2102   93.6647    8.5121 C.ar    1  UNL1       -0.0003
     10 C          68.3263   92.2654    9.0398 C.ar    1  UNL1       -0.0003
     11 C          67.6360   91.8856   10.3162 C.ar    1  UNL1       -0.0027
     12 C          66.8296   92.9051   11.0648 C.ar    1  UNL1       -0.0043
     13 C          66.9051   92.5054   13.6309 C.ar    1  UNL1       -0.0003
     14 C          66.3047   93.1028   14.8690 C.ar    1  UNL1       -0.0024
     15 C          67.0705   93.0829   16.1586 C.ar    1  UNL1       -0.0003
     16 C          68.4367   92.4657   16.2102 C.ar    1  UNL1       -0.0000
     17 C          69.0370   91.8683   14.9722 C.ar    1  UNL1       -0.0003
     18 C          68.2712   91.8881   13.6825 C.ar    1  UNL1       -0.0024
     19 C          62.7408   90.6186   13.0929 C.3     1  UNL1        0.1759
     20 N          62.2505   89.5094   12.2100 N.am    1  UNL1       -0.2931
     21 C          62.1383   89.7231   10.7296 C.2     1  UNL1        0.2462
     22 O          62.5166   91.0460   10.1320 O.2     1  UNL1       -0.2701
     23 H          62.0022   88.6412   12.6023 H       1  UNL1        0.1502
     24 C          61.6480   88.6140    9.8467 C.ar    1  UNL1        0.0535
     25 C          62.3923   87.3127    9.7938 C.ar    1  UNL1        0.0068
     26 C          61.9020   86.2036    8.9110 C.ar    1  UNL1        0.0298
     27 C          60.6674   86.3958    8.0810 C.ar    1  UNL1        0.1401
     28 F          60.1770   85.2867    7.1981 F       1  UNL1       -0.2042
     29 C          59.9231   87.6970    8.1339 C.ar    1  UNL1        0.0298
     30 C          60.4135   88.8062    9.0168 C.ar    1  UNL1        0.0068
@<TRIPOS>BOND
     1     6     7    1
     2     7     8   ar
     3     8     9   ar
     4     9    10   ar
     5    10    11   ar
     6    11    12   ar
     7    12     5    1
     8     5     1    1
     9     1     2   am
    10     2     3    2
    11     2    19    1
    12    19    20    1
    13    20    21   am
    14    21    22    2
    15    21    24    1
    16    24    25   ar
    17    25    26   ar
    18    26    27   ar
    19    27    28    1
    20    27    29   ar
    21    29    30   ar
    22     5    13    1
    23    13    14   ar
    24    14    15   ar
    25    15    16   ar
    26    16    17   ar
    27    17    18   ar
    28    12     7   ar
    29    30    24   ar
    30    18    13   ar
    31     1     4    1
    32    20    23    1
@<TRIPOS>MOLECULE
*****
 30 32 0 0 0
SMALL
GASTEIGER

@<TRIPOS>ATOM
      1 N          64.7006   88.6951   14.9669 N.am    1  UNL1       -0.2972
      2 C          63.4533   88.4691   15.7689 C.2     1  UNL1        0.2430
      3 O          62.3665   89.5030   15.7728 O.2     1  UNL1       -0.2732
      4 H          65.4138   88.0165   14.9644 H       1  UNL1        0.1500
      5 C          64.8611   89.9549   14.1689 C.3     1  UNL1        0.1166
      6 C          64.0308   91.7553   16.4204 C.3     1  UNL1        0.0308
      7 C          65.3724   91.9333   15.7735 C.ar    1  UNL1       -0.0240
      8 C          66.2988   93.0115   16.2523 C.ar    1  UNL1       -0.0045
      9 C          67.6403   93.1895   15.6053 C.ar    1  UNL1       -0.0003
     10 C          68.0555   92.2894   14.4796 C.ar    1  UNL1       -0.0003
     11 C          67.1291   91.2112   14.0008 C.ar    1  UNL1       -0.0027
     12 C          65.7875   91.0332   14.6477 C.ar    1  UNL1       -0.0043
     13 C          64.0953   90.1366   12.8920 C.ar    1  UNL1       -0.0003
     14 C          63.2126   89.0354   12.3836 C.ar    1  UNL1       -0.0024
     15 C          62.4468   89.2171   11.1067 C.ar    1  UNL1       -0.0003
     16 C          62.5636   90.4999   10.3381 C.ar    1  UNL1       -0.0000
     17 C          63.4462   91.6010   10.8464 C.ar    1  UNL1       -0.0003
     18 C          64.2121   91.4194   12.1234 C.ar    1  UNL1       -0.0024
     19 C          63.2927   87.2092   16.5670 C.3     1  UNL1        0.1759
     20 N          62.9257   85.9275   15.8795 N.am    1  UNL1       -0.2931
     21 C          63.9426   85.2058   15.0457 C.2     1  UNL1        0.2462
     22 O          65.3265   85.7658   14.8995 O.2     1  UNL1       -0.2701
     23 H          62.0174   85.5600   15.9755 H       1  UNL1        0.1502
     24 C          63.5756   83.9242   14.3582 C.ar    1  UNL1        0.0535
     25 C          62.4547   83.0816   14.8908 C.ar    1  UNL1        0.0068
     26 C          62.0877   81.8000   14.2033 C.ar    1  UNL1        0.0298
     27 C          62.8417   81.3608   12.9831 C.ar    1  UNL1        0.1401
     28 F          62.4747   80.0792   12.2956 F       1  UNL1       -0.2042
     29 C          63.9626   82.2034   12.4505 C.ar    1  UNL1        0.0298
     30 C          64.3295   83.4851   13.1381 C.ar    1  UNL1        0.0068
@<TRIPOS>BOND
     1     6     7    1
     2     7     8   ar
     3     8     9   ar
     4     9    10   ar
     5    10    11   ar
     6    11    12   ar
     7    12     5    1
     8     5     1    1
     9     1     2   am
    10     2     3    2
    11     2    19    1
    12    19    20    1
    13    20    21   am
    14    21    22    2
    15    21    24    1
    16    24    25   ar
    17    25    26   ar
    18    26    27   ar
    19    27    28    1
    20    27    29   ar
    21    29    30   ar
    22     5    13    1
    23    13    14   ar
    24    14    15   ar
    25    15    16   ar
    26    16    17   ar
    27    17    18   ar
    28    12     7   ar
    29    30    24   ar
    30    18    13   ar
    31     1     4    1
    32    20    23    1
@<TRIPOS>MOLECULE
*****
 30 32 0 0 0
SMALL
GASTEIGER

@<TRIPOS>ATOM
      1 N          62.8979   88.4041   11.0877 N.am    1  UNL1       -0.2972
      2 C          62.1221   89.4511   11.8306 C.2     1  UNL1        0.2430
      3 O          60.7583   89.1335   12.3685 O.2     1  UNL1       -0.2732
      4 H          63.7929   88.6125   10.7347 H       1  UNL1        0.1500
      5 C          62.3098   87.0395   10.8826 C.3     1  UNL1        0.1166
      6 C          63.2196   85.4958    8.4765 C.3     1  UNL1        0.0308
      7 C          61.8167   86.0225    8.5432 C.ar    1  UNL1       -0.0240
      8 C          60.8688   85.7775    7.4069 C.ar    1  UNL1       -0.0045
      9 C          59.4659   86.3042    7.4736 C.ar    1  UNL1       -0.0003
     10 C          59.0110   87.0760    8.6766 C.ar    1  UNL1       -0.0003
     11 C          59.9589   87.3211    9.8129 C.ar    1  UNL1       -0.0027
     12 C          61.3618   86.7943    9.7462 C.ar    1  UNL1       -0.0043
     13 C          62.6698   85.9200   11.8138 C.ar    1  UNL1       -0.0003
     14 C          63.4073   86.2113   13.0871 C.ar    1  UNL1       -0.0024
     15 C          63.7673   85.0919   14.0183 C.ar    1  UNL1       -0.0003
     16 C          63.3897   83.6810   13.6763 C.ar    1  UNL1       -0.0000
     17 C          62.6521   83.3897   12.4031 C.ar    1  UNL1       -0.0003
     18 C          62.2922   84.5091   11.4718 C.ar    1  UNL1       -0.0024
     19 C          62.7102   90.8157   12.0357 C.3     1  UNL1        0.1759
     20 N          63.8043   91.0174   13.0418 N.am    1  UNL1       -0.2931
     21 C          64.9980   91.8564   12.6937 C.2     1  UNL1        0.2462
     22 O          65.0975   92.4937   11.3394 O.2     1  UNL1       -0.2701
     23 H          63.7390   90.5991   13.9307 H       1  UNL1        0.1502
     24 C          66.0921   92.0581   13.6997 C.ar    1  UNL1        0.0535
     25 C          67.5273   91.9286   13.2830 C.ar    1  UNL1        0.0068
     26 C          68.6214   92.1303   14.2891 C.ar    1  UNL1        0.0298
     27 C          68.2805   92.4616   15.7118 C.ar    1  UNL1        0.1401
     28 F          69.3746   92.6633   16.7178 F       1  UNL1       -0.2042
     29 C          66.8453   92.5911   16.1284 C.ar    1  UNL1        0.0298
     30 C          65.7511   92.3893   15.1223 C.ar    1  UNL1        0.0068
@<TRIPOS>BOND
     1     6     7    1
     2     7     8   ar
     3     8     9   ar
     4     9    10   ar
     5    10    11   ar
     6    11    12   ar
     7    12     5    1
     8     5     1    1
     9     1     2   am
    10     2     3    2
    11     2    19    1
    12    19    20    1
    13    20    21   am
    14    21    22    2
    15    21    24    1
    16    24    25   ar
    17    25    26   ar
    18    26    27   ar
    19    27    28    1
    20    27    29   ar
    21    29    30   ar
    22     5    13    1
    23    13    14   ar
    24    14    15   ar
    25    15    16   ar
    26    16    17   ar
    27    17    18   ar
    28    12     7   ar
    29    30    24   ar
    30    18    13   ar
    31     1     4    1
    32    20    23    1
@<TRIPOS>MOLECULE
*****
 30 32 0 0 0
SMALL
GASTEIGER

@<TRIPOS>ATOM
      1 N          62.3891   88.1502   10.4056 N.am    1  UNL1       -0.2972
      2 C          61.3435   88.8508   11.2215 C.2     1  UNL1        0.2430
      3 O          60.2756   88.0567   11.9138 O.2     1  UNL1       -0.2732
      4 H          63.0899   88.6714    9.9513 H       1  UNL1        0.1500
      5 C          62.3669   86.6555   10.2819 C.3     1  UNL1        0.1166
      6 C          59.6141   86.9372    9.1230 C.3     1  UNL1        0.0308
      7 C          60.6622   86.1576    8.3856 C.ar    1  UNL1       -0.0240
      8 C          60.3338   85.5188    7.0687 C.ar    1  UNL1       -0.0045
      9 C          61.3818   84.7392    6.3312 C.ar    1  UNL1       -0.0003
     10 C          62.7582   84.5984    6.9106 C.ar    1  UNL1       -0.0003
     11 C          63.0866   85.2371    8.2275 C.ar    1  UNL1       -0.0027
     12 C          62.0385   86.0167    8.9649 C.ar    1  UNL1       -0.0043
     13 C          62.6732   85.7996   11.4750 C.ar    1  UNL1       -0.0003
     14 C          63.3210   86.4041   12.6853 C.ar    1  UNL1       -0.0024
     15 C          63.6273   85.5481   13.8784 C.ar    1  UNL1       -0.0003
     16 C          63.2857   84.0877   13.8612 C.ar    1  UNL1       -0.0000
     17 C          62.6378   83.4831   12.6510 C.ar    1  UNL1       -0.0003
     18 C          62.3316   84.3391   11.4578 C.ar    1  UNL1       -0.0024
     19 C          61.3656   90.3455   11.3453 C.3     1  UNL1        0.1759
     20 N          62.6242   91.0447   11.7664 N.am    1  UNL1       -0.2931
     21 C          63.2870   90.6802   13.0617 C.2     1  UNL1        0.2462
     22 O          62.6913   89.6167   13.9359 O.2     1  UNL1       -0.2701
     23 H          63.0151   91.7427   11.1927 H       1  UNL1        0.1502
     24 C          64.5455   91.3793   13.4829 C.ar    1  UNL1        0.0535
     25 C          65.0466   91.2389   14.8898 C.ar    1  UNL1        0.0068
     26 C          66.3051   91.9379   15.3110 C.ar    1  UNL1        0.0298
     27 C          67.0626   92.7775   14.3253 C.ar    1  UNL1        0.1401
     28 F          68.3211   93.4766   14.7465 F       1  UNL1       -0.2042
     29 C          66.5615   92.9179   12.9185 C.ar    1  UNL1        0.0298
     30 C          65.3029   92.2188   12.4973 C.ar    1  UNL1        0.0068
@<TRIPOS>BOND
     1     6     7    1
     2     7     8   ar
     3     8     9   ar
     4     9    10   ar
     5    10    11   ar
     6    11    12   ar
     7    12     5    1
     8     5     1    1
     9     1     2   am
    10     2     3    2
    11     2    19    1
    12    19    20    1
    13    20    21   am
    14    21    22    2
    15    21    24    1
    16    24    25   ar
    17    25    26   ar
    18    26    27   ar
    19    27    28    1
    20    27    29   ar
    21    29    30   ar
    22     5    13    1
    23    13    14   ar
    24    14    15   ar
    25    15    16   ar
    26    16    17   ar
    27    17    18   ar
    28    12     7   ar
    29    30    24   ar
    30    18    13   ar
    31     1     4    1
    32    20    23    1
@<TRIPOS>MOLECULE
*****
 30 32 0 0 0
SMALL
GASTEIGER

@<TRIPOS>ATOM
      1 N          63.6231   90.3262   12.3652 N.am    1  UNL1       -0.2972
      2 C          62.1347   90.1407   12.3678 C.2     1  UNL1        0.2430
      3 O          61.4195   89.8326   13.6498 O.2     1  UNL1       -0.2732
      4 H          64.0925   90.5285   11.5238 H       1  UNL1        0.1500
      5 C          64.3965   90.2036   13.6446 C.3     1  UNL1        0.1166
      6 C          63.2719   90.8391   16.3523 C.3     1  UNL1        0.0308
      7 C          63.5222   89.4131   15.9600 C.ar    1  UNL1       -0.0240
      8 C          63.2103   88.3049   16.9215 C.ar    1  UNL1       -0.0045
      9 C          63.4607   86.8789   16.5293 C.ar    1  UNL1       -0.0003
     10 C          64.0230   86.5611   15.1755 C.ar    1  UNL1       -0.0003
     11 C          64.3349   87.6693   14.2140 C.ar    1  UNL1       -0.0027
     12 C          64.0845   89.0953   14.6062 C.ar    1  UNL1       -0.0043
     13 C          65.4817   91.1890   13.9625 C.ar    1  UNL1       -0.0003
     14 C          65.4968   92.5305   13.2913 C.ar    1  UNL1       -0.0024
     15 C          66.5820   93.5160   13.6092 C.ar    1  UNL1       -0.0003
     16 C          67.6521   93.1601   14.5982 C.ar    1  UNL1       -0.0000
     17 C          67.6371   91.8187   15.2693 C.ar    1  UNL1       -0.0003
     18 C          66.5518   90.8332   14.9515 C.ar    1  UNL1       -0.0024
     19 C          61.3614   90.2634   11.0884 C.3     1  UNL1        0.1759
     20 N          61.5659   89.2629    9.9895 N.am    1  UNL1       -0.2931
     21 C          61.1704   87.8308   10.1961 C.2     1  UNL1        0.2462
     22 O          60.5705   87.3992   11.5014 O.2     1  UNL1       -0.2701
     23 H          61.9596   89.5462    9.1328 H       1  UNL1        0.1502
     24 C          61.3749   86.8303    9.0974 C.ar    1  UNL1        0.0535
     25 C          62.6874   86.1158    8.9683 C.ar    1  UNL1        0.0068
     26 C          62.8919   85.1154    7.8696 C.ar    1  UNL1        0.0298
     27 C          61.7838   84.8294    6.8998 C.ar    1  UNL1        0.1401
     28 F          61.9882   83.8289    5.8011 F       1  UNL1       -0.2042
     29 C          60.4712   85.5439    7.0289 C.ar    1  UNL1        0.0298
     30 C          60.2668   86.5444    8.1277 C.ar    1  UNL1        0.0068
@<TRIPOS>BOND
     1     6     7    1
     2     7     8   ar
     3     8     9   ar
     4     9    10   ar
     5    10    11   ar
     6    11    12   ar
     7    12     5    1
     8     5     1    1
     9     1     2   am
    10     2     3    2
    11     2    19    1
    12    19    20    1
    13    20    21   am
    14    21    22    2
    15    21    24    1
    16    24    25   ar
    17    25    26   ar
    18    26    27   ar
    19    27    28    1
    20    27    29   ar
    21    29    30   ar
    22     5    13    1
    23    13    14   ar
    24    14    15   ar
    25    15    16   ar
    26    16    17   ar
    27    17    18   ar
    28    12     7   ar
    29    30    24   ar
    30    18    13   ar
    31     1     4    1
    32    20    23    1
@<TRIPOS>MOLECULE
*****
 30 32 0 0 0
SMALL
GASTEIGER

@<TRIPOS>ATOM
      1 N          62.4451   87.8916   11.1857 N.am    1  UNL1       -0.2972
      2 C          61.1741   88.6107   11.5282 C.2     1  UNL1        0.2430
      3 O          59.8714   87.8669   11.5403 O.2     1  UNL1       -0.2732
      4 H          63.3000   88.3797   11.1778 H       1  UNL1        0.1500
      5 C          62.4135   86.4287   10.8553 C.3     1  UNL1        0.1166
      6 C          63.7709   87.2883   13.3888 C.3     1  UNL1        0.0308
      7 C          63.4256   85.8442   13.1757 C.ar    1  UNL1       -0.0240
      8 C          63.7589   84.8300   14.2293 C.ar    1  UNL1       -0.0045
      9 C          63.4135   83.3859   14.0162 C.ar    1  UNL1       -0.0003
     10 C          62.7348   82.9561   12.7494 C.ar    1  UNL1       -0.0003
     11 C          62.4015   83.9704   11.6958 C.ar    1  UNL1       -0.0027
     12 C          62.7469   85.4145   11.9090 C.ar    1  UNL1       -0.0043
     13 C          62.0487   85.9802    9.4712 C.ar    1  UNL1       -0.0003
     14 C          60.6610   86.2096    8.9498 C.ar    1  UNL1       -0.0024
     15 C          60.2961   85.7610    7.5658 C.ar    1  UNL1       -0.0003
     16 C          61.3189   85.0831    6.7030 C.ar    1  UNL1       -0.0000
     17 C          62.7065   84.8537    7.2244 C.ar    1  UNL1       -0.0003
     18 C          63.0715   85.3023    8.6085 C.ar    1  UNL1       -0.0024
     19 C          61.2056   90.0735   11.8587 C.3     1  UNL1        0.1759
     20 N          62.3510   90.6404   12.6440 N.am    1  UNL1       -0.2931
     21 C          63.5968   91.0864   11.9375 C.2     1  UNL1        0.2462
     22 O          63.6971   90.9655   10.4457 O.2     1  UNL1       -0.2701
     23 H          62.2851   90.7198   13.6231 H       1  UNL1        0.1502
     24 C          64.7422   91.6534   12.7227 C.ar    1  UNL1        0.0535
     25 C          65.1787   90.9920   13.9963 C.ar    1  UNL1        0.0068
     26 C          66.3240   91.5589   14.7815 C.ar    1  UNL1        0.0298
     27 C          67.0330   92.7873   14.2932 C.ar    1  UNL1        0.1401
     28 F          68.1784   93.3543   15.0784 F       1  UNL1       -0.2042
     29 C          66.5966   93.4487   13.0196 C.ar    1  UNL1        0.0298
     30 C          65.4511   92.8817   12.2343 C.ar    1  UNL1        0.0068
@<TRIPOS>BOND
     1     6     7    1
     2     7     8   ar
     3     8     9   ar
     4     9    10   ar
     5    10    11   ar
     6    11    12   ar
     7    12     5    1
     8     5     1    1
     9     1     2   am
    10     2     3    2
    11     2    19    1
    12    19    20    1
    13    20    21   am
    14    21    22    2
    15    21    24    1
    16    24    25   ar
    17    25    26   ar
    18    26    27   ar
    19    27    28    1
    20    27    29   ar
    21    29    30   ar
    22     5    13    1
    23    13    14   ar
    24    14    15   ar
    25    15    16   ar
    26    16    17   ar
    27    17    18   ar
    28    12     7   ar
    29    30    24   ar
    30    18    13   ar
    31     1     4    1
    32    20    23    1
@<TRIPOS>MOLECULE
*****
 30 32 0 0 0
SMALL
GASTEIGER

@<TRIPOS>ATOM
      1 N          62.9357   85.8048   13.1322 N.am    1  UNL1       -0.2972
      2 C          64.0991   85.7612   14.0781 C.2     1  UNL1        0.2430
      3 O          65.0380   84.5914   14.0588 O.2     1  UNL1       -0.2732
      4 H          62.3196   86.5725   13.1449 H       1  UNL1        0.1500
      5 C          62.7112   84.6787   12.1671 C.3     1  UNL1        0.1166
      6 C          60.8320   86.7868   11.1547 C.3     1  UNL1        0.0308
      7 C          61.6805   86.0125   10.1900 C.ar    1  UNL1       -0.0240
      8 C          61.5894   86.2923    8.7192 C.ar    1  UNL1       -0.0045
      9 C          62.4380   85.5181    7.7545 C.ar    1  UNL1       -0.0003
     10 C          63.3776   84.4641    8.2607 C.ar    1  UNL1       -0.0003
     11 C          63.4686   84.1843    9.7315 C.ar    1  UNL1       -0.0027
     12 C          62.6201   84.9586   10.6962 C.ar    1  UNL1       -0.0043
     13 C          62.5777   83.2729   12.6728 C.ar    1  UNL1       -0.0003
     14 C          61.9784   83.0154   14.0236 C.ar    1  UNL1       -0.0024
     15 C          61.8449   81.6096   14.5293 C.ar    1  UNL1       -0.0003
     16 C          62.3106   80.4611   13.6842 C.ar    1  UNL1       -0.0000
     17 C          62.9099   80.7185   12.3334 C.ar    1  UNL1       -0.0003
     18 C          63.0434   82.1245   11.8277 C.ar    1  UNL1       -0.0024
     19 C          64.3237   86.8872   15.0432 C.3     1  UNL1        0.1759
     20 N          64.9521   88.1651   14.5717 N.am    1  UNL1       -0.2931
     21 C          64.1491   89.4318   14.5486 C.2     1  UNL1        0.2462
     22 O          62.7176   89.4207   14.9970 O.2     1  UNL1       -0.2701
     23 H          65.8915   88.1724   14.2774 H       1  UNL1        0.1502
     24 C          64.7774   90.7096   14.0771 C.ar    1  UNL1        0.0535
     25 C          65.7136   91.4615   14.9762 C.ar    1  UNL1        0.0068
     26 C          66.3419   92.7393   14.5047 C.ar    1  UNL1        0.0298
     27 C          66.0340   93.2653   13.1341 C.ar    1  UNL1        0.1401
     28 F          66.6624   94.5432   12.6626 F       1  UNL1       -0.2042
     29 C          65.0978   92.5135   12.2350 C.ar    1  UNL1        0.0298
     30 C          64.4695   91.2357   12.7066 C.ar    1  UNL1        0.0068
@<TRIPOS>BOND
     1     6     7    1
     2     7     8   ar
     3     8     9   ar
     4     9    10   ar
     5    10    11   ar
     6    11    12   ar
     7    12     5    1
     8     5     1    1
     9     1     2   am
    10     2     3    2
    11     2    19    1
    12    19    20    1
    13    20    21   am
    14    21    22    2
    15    21    24    1
    16    24    25   ar
    17    25    26   ar
    18    26    27   ar
    19    27    28    1
    20    27    29   ar
    21    29    30   ar
    22     5    13    1
    23    13    14   ar
    24    14    15   ar
    25    15    16   ar
    26    16    17   ar
    27    17    18   ar
    28    12     7   ar
    29    30    24   ar
    30    18    13   ar
    31     1     4    1
    32    20    23    1
@<TRIPOS>MOLECULE
*****
 30 32 0 0 0
SMALL
GASTEIGER

@<TRIPOS>ATOM
      1 N          64.2342   87.9610   14.6816 N.am    1  UNL1       -0.2972
      2 C          63.3917   87.6881   15.8922 C.2     1  UNL1        0.2430
      3 O          62.5490   88.7803   16.4813 O.2     1  UNL1       -0.2732
      4 H          64.7872   87.2441   14.2949 H       1  UNL1        0.1500
      5 C          64.2341   89.3261   14.0600 C.3     1  UNL1        0.1166
      6 C          63.1035   86.9990   12.5413 C.3     1  UNL1        0.0308
      7 C          62.9901   88.3861   11.9818 C.ar    1  UNL1       -0.0240
      8 C          62.3114   88.6097   10.6629 C.ar    1  UNL1       -0.0045
      9 C          62.1980   89.9968   10.1034 C.ar    1  UNL1       -0.0003
     10 C          62.7633   91.1603   10.8627 C.ar    1  UNL1       -0.0003
     11 C          63.4420   90.9368   12.1815 C.ar    1  UNL1       -0.0027
     12 C          63.5554   89.5497   12.7411 C.ar    1  UNL1       -0.0043
     13 C          64.9127   90.4677   14.7573 C.ar    1  UNL1       -0.0003
     14 C          66.3096   90.8571   14.3737 C.ar    1  UNL1       -0.0024
     15 C          66.9882   91.9987   15.0710 C.ar    1  UNL1       -0.0003
     16 C          66.2699   92.7510   16.1518 C.ar    1  UNL1       -0.0000
     17 C          64.8731   92.3616   16.5354 C.ar    1  UNL1       -0.0003
     18 C          64.1944   91.2200   15.8381 C.ar    1  UNL1       -0.0024
     19 C          63.3917   86.3229   16.5138 C.3     1  UNL1        0.1759
     20 N          63.0207   85.1244   15.6915 N.am    1  UNL1       -0.2931
     21 C          64.0281   84.5087   14.7662 C.2     1  UNL1        0.2462
     22 O          65.4065   85.0914   14.6633 O.2     1  UNL1       -0.2701
     23 H          62.1161   84.7420   15.7591 H       1  UNL1        0.1502
     24 C          63.6572   83.3102   13.9440 C.ar    1  UNL1        0.0535
     25 C          62.6737   82.3106   14.4764 C.ar    1  UNL1        0.0068
     26 C          62.3027   81.1122   13.6542 C.ar    1  UNL1        0.0298
     27 C          62.9153   80.9134   12.2994 C.ar    1  UNL1        0.1401
     28 F          62.5444   79.7149   11.4772 F       1  UNL1       -0.2042
     29 C          63.8989   81.9130   11.7670 C.ar    1  UNL1        0.0298
     30 C          64.2698   83.1114   12.5893 C.ar    1  UNL1        0.0068
@<TRIPOS>BOND
     1     6     7    1
     2     7     8   ar
     3     8     9   ar
     4     9    10   ar
     5    10    11   ar
     6    11    12   ar
     7    12     5    1
     8     5     1    1
     9     1     2   am
    10     2     3    2
    11     2    19    1
    12    19    20    1
    13    20    21   am
    14    21    22    2
    15    21    24    1
    16    24    25   ar
    17    25    26   ar
    18    26    27   ar
    19    27    28    1
    20    27    29   ar
    21    29    30   ar
    22     5    13    1
    23    13    14   ar
    24    14    15   ar
    25    15    16   ar
    26    16    17   ar
    27    17    18   ar
    28    12     7   ar
    29    30    24   ar
    30    18    13   ar
    31     1     4    1
    32    20    23    1
@<TRIPOS>MOLECULE
*****
 30 32 0 0 0
SMALL
GASTEIGER

@<TRIPOS>ATOM
      1 N          64.0056   90.3002   12.8731 N.am    1  UNL1       -0.2972
      2 C          62.5192   90.2078   12.6937 C.2     1  UNL1        0.2430
      3 O          61.6427   89.8641   13.8614 O.2     1  UNL1       -0.2732
      4 H          64.5808   90.5258   12.1066 H       1  UNL1        0.1500
      5 C          64.6155   90.0489   14.2203 C.3     1  UNL1        0.1166
      6 C          63.8955   91.9479   16.4284 C.3     1  UNL1        0.0308
      7 C          65.2871   91.9418   15.8683 C.ar    1  UNL1       -0.0240
      8 C          66.3186   92.8851   16.4123 C.ar    1  UNL1       -0.0045
      9 C          67.7101   92.8790   15.8523 C.ar    1  UNL1       -0.0003
     10 C          68.0701   91.9296   14.7483 C.ar    1  UNL1       -0.0003
     11 C          67.0386   90.9862   14.2043 C.ar    1  UNL1       -0.0027
     12 C          65.6470   90.9923   14.7643 C.ar    1  UNL1       -0.0043
     13 C          64.1938   88.8543   15.0234 C.ar    1  UNL1       -0.0003
     14 C          64.5511   87.4737   14.5581 C.ar    1  UNL1       -0.0024
     15 C          64.1295   86.2790   15.3613 C.ar    1  UNL1       -0.0003
     16 C          63.3506   86.4649   16.6296 C.ar    1  UNL1       -0.0000
     17 C          62.9933   87.8454   17.0949 C.ar    1  UNL1       -0.0003
     18 C          63.4149   89.0402   16.2918 C.ar    1  UNL1       -0.0024
     19 C          61.9094   90.4591   11.3465 C.3     1  UNL1        0.1759
     20 N          62.0124   89.4188   10.2707 N.am    1  UNL1       -0.2931
     21 C          61.2047   88.1584   10.3664 C.2     1  UNL1        0.2462
     22 O          60.2940   87.9384   11.5379 O.2     1  UNL1       -0.2701
     23 H          62.6101   89.5632    9.5019 H       1  UNL1        0.1502
     24 C          61.3077   87.1181    9.2907 C.ar    1  UNL1        0.0535
     25 C          62.5868   86.3575    9.1029 C.ar    1  UNL1        0.0068
     26 C          62.6898   85.3172    8.0273 C.ar    1  UNL1        0.0298
     27 C          61.5136   85.0375    7.1393 C.ar    1  UNL1        0.1401
     28 F          61.6166   83.9972    6.0636 F       1  UNL1       -0.2042
     29 C          60.2345   85.7981    7.3271 C.ar    1  UNL1        0.0298
     30 C          60.1315   86.8385    8.4028 C.ar    1  UNL1        0.0068
@<TRIPOS>BOND
     1     6     7    1
     2     7     8   ar
     3     8     9   ar
     4     9    10   ar
     5    10    11   ar
     6    11    12   ar
     7    12     5    1
     8     5     1    1
     9     1     2   am
    10     2     3    2
    11     2    19    1
    12    19    20    1
    13    20    21   am
    14    21    22    2
    15    21    24    1
    16    24    25   ar
    17    25    26   ar
    18    26    27   ar
    19    27    28    1
    20    27    29   ar
    21    29    30   ar
    22     5    13    1
    23    13    14   ar
    24    14    15   ar
    25    15    16   ar
    26    16    17   ar
    27    17    18   ar
    28    12     7   ar
    29    30    24   ar
    30    18    13   ar
    31     1     4    1
    32    20    23    1
