@<TRIPOS>MOLECULE
*****
 29 33 0 0 0
SMALL
GASTEIGER

@<TRIPOS>ATOM
      1 C          63.9913   90.0935   13.5939 C.ar    1  UNL1        0.1385
      2 C          63.3617   89.7054   12.2889 C.ar    1  UNL1        0.0384
      3 C          63.1362   88.2580   11.9661 C.ar    1  UNL1        0.0203
      4 C          63.5403   87.1988   12.9483 C.ar    1  UNL1        0.0602
      5 C          64.1698   87.5868   14.2533 C.ar    1  UNL1        0.0204
      6 C          64.3954   89.0342   14.5760 C.ar    1  UNL1        0.0384
      7 C          64.4624   86.3304   15.0186 C.ar    1  UNL1        0.0234
      8 C          64.0136   85.1657   14.1866 C.ar    1  UNL1        0.1143
      9 N          63.4437   85.7024   12.9071 N.ar    1  UNL1       -0.3219
     10 C          62.9105   84.7592   11.8698 C.3     1  UNL1        0.1258
     11 C          62.9472   83.2794   12.1120 C.3     1  UNL1        0.0982
     12 C          62.4139   82.3362   11.0747 C.3     1  UNL1        0.0236
     13 N          63.5171   82.7427   13.3915 N.am    1  UNL1       -0.2746
     14 C          64.0503   83.6859   14.4288 C.2     1  UNL1        0.2649
     15 O          64.6203   83.1492   15.7084 O.2     1  UNL1       -0.2683
     16 O          64.2169   91.5409   13.9167 O.3     1  UNL1       -0.4791
     17 N          66.3891   94.1858   10.9951 N.3     1  UNL1       -0.2737
     18 C          66.6528   94.3179   12.4658 C.3     1  UNL1        0.0758
     19 C          65.9287   93.4362   13.4397 C.3     1  UNL1        0.0609
     20 C          64.9410   92.4225   12.9429 C.3     1  UNL1        0.1687
     21 C          64.6774   92.2905   11.4721 C.3     1  UNL1        0.0609
     22 C          65.4014   93.1721   10.4982 C.3     1  UNL1        0.0758
     23 C          68.0323   94.4625    9.0018 C.3     1  UNL1        0.0173
     24 C          67.1132   95.0674   10.0213 C.3     1  UNL1        0.0576
     25 C          66.9182   96.5541   10.0669 C.3     1  UNL1        0.0173
     26 C          63.5538   81.2628   13.6338 C.3     1  UNL1        0.0937
     27 C          62.2741   80.4980   13.7992 C.3     1  UNL1        0.0199
     28 C          60.8098   80.4704   14.1236 C.3     1  UNL1        0.0018
     29 C          61.5218   79.2008   13.7614 C.3     1  UNL1        0.0018
@<TRIPOS>BOND
     1    23    24    1
     2    24    25    1
     3    24    17    1
     4    17    18    1
     5    18    19    1
     6    19    20    1
     7    20    16    1
     8    16     1    1
     9     1     2   ar
    10     2     3   ar
    11     3     4   ar
    12     4     5   ar
    13     5     6   ar
    14     5     7   ar
    15     7     8   ar
    16     8     9   ar
    17     9    10    1
    18    10    11    1
    19    11    12    1
    20    11    13    1
    21    13    26    1
    22    26    27    1
    23    27    28    1
    24    28    29    1
    25    13    14   am
    26    14    15    2
    27    20    21    1
    28    21    22    1
    29    22    17    1
    30     6     1   ar
    31    14     8    1
    32     9     4   ar
    33    29    27    1
@<TRIPOS>MOLECULE
*****
 29 33 0 0 0
SMALL
GASTEIGER

@<TRIPOS>ATOM
      1 C          59.3603   89.1317    7.3385 C.ar    1  UNL1        0.1385
      2 C          59.2545   87.6487    7.1395 C.ar    1  UNL1        0.0384
      3 C          59.9575   86.7140    8.0787 C.ar    1  UNL1        0.0203
      4 C          60.7664   87.2623    9.2168 C.ar    1  UNL1        0.0602
      5 C          60.8722   88.7452    9.4157 C.ar    1  UNL1        0.0204
      6 C          60.1691   89.6799    8.4765 C.ar    1  UNL1        0.0384
      7 C          61.7350   88.9913   10.6178 C.ar    1  UNL1        0.0234
      8 C          62.1625   87.6603   11.1618 C.ar    1  UNL1        0.1143
      9 N          61.5638   86.5917   10.2960 N.ar    1  UNL1       -0.3219
     10 C          61.8222   85.1463   10.6020 C.3     1  UNL1        0.1258
     11 C          62.6792   84.7693   11.7740 C.3     1  UNL1        0.0982
     12 C          62.9376   83.3238   12.0800 C.3     1  UNL1        0.0236
     13 N          63.2778   85.8379   12.6398 N.am    1  UNL1       -0.2746
     14 C          63.0195   87.2835   12.3337 C.2     1  UNL1        0.2649
     15 O          63.6181   88.3521   13.1996 O.2     1  UNL1       -0.2683
     16 O          58.6573   90.0664    6.3993 O.3     1  UNL1       -0.4791
     17 N          61.0060   92.3258    3.2962 N.3     1  UNL1       -0.2737
     18 C          59.5595   92.6500    3.5250 C.3     1  UNL1        0.0758
     19 C          58.7765   91.8969    4.5594 C.3     1  UNL1        0.0609
     20 C          59.4402   90.8195    5.3649 C.3     1  UNL1        0.1687
     21 C          60.8868   90.4953    5.1361 C.3     1  UNL1        0.0609
     22 C          61.6696   91.2484    4.1018 C.3     1  UNL1        0.0758
     23 C          61.1269   94.1606    1.4608 C.3     1  UNL1        0.0173
     24 C          61.7889   93.0789    2.2619 C.3     1  UNL1        0.0576
     25 C          63.2338   92.7503    2.0286 C.3     1  UNL1        0.0173
     26 C          64.1349   85.4610   13.8118 C.3     1  UNL1        0.0937
     27 C          63.5399   85.4008   15.1875 C.3     1  UNL1        0.0199
     28 C          62.5653   84.7992   16.1561 C.3     1  UNL1        0.0018
     29 C          63.4840   85.8982   16.6015 C.3     1  UNL1        0.0018
@<TRIPOS>BOND
     1    23    24    1
     2    24    25    1
     3    24    17    1
     4    17    18    1
     5    18    19    1
     6    19    20    1
     7    20    16    1
     8    16     1    1
     9     1     2   ar
    10     2     3   ar
    11     3     4   ar
    12     4     5   ar
    13     5     6   ar
    14     5     7   ar
    15     7     8   ar
    16     8     9   ar
    17     9    10    1
    18    10    11    1
    19    11    12    1
    20    11    13    1
    21    13    26    1
    22    26    27    1
    23    27    28    1
    24    28    29    1
    25    13    14   am
    26    14    15    2
    27    20    21    1
    28    21    22    1
    29    22    17    1
    30     6     1   ar
    31    14     8    1
    32     9     4   ar
    33    29    27    1
@<TRIPOS>MOLECULE
*****
 29 33 0 0 0
SMALL
GASTEIGER

@<TRIPOS>ATOM
      1 C          63.6718   90.0635   13.3525 C.ar    1  UNL1        0.1385
      2 C          63.0785   89.6486   12.0388 C.ar    1  UNL1        0.0384
      3 C          62.9262   88.1928   11.7111 C.ar    1  UNL1        0.0203
      4 C          63.3671   87.1519   12.6971 C.ar    1  UNL1        0.0602
      5 C          63.9604   87.5668   14.0108 C.ar    1  UNL1        0.0204
      6 C          64.1128   89.0226   14.3385 C.ar    1  UNL1        0.0384
      7 C          64.3022   86.3241   14.7781 C.ar    1  UNL1        0.0234
      8 C          63.9201   85.1412   13.9387 C.ar    1  UNL1        0.1143
      9 N          63.3422   85.6528   12.6525 N.ar    1  UNL1       -0.3219
     10 C          62.8680   84.6875   11.6070 C.3     1  UNL1        0.1258
     11 C          62.9717   83.2105   11.8476 C.3     1  UNL1        0.0982
     12 C          62.4974   82.2452   10.8020 C.3     1  UNL1        0.0236
     13 N          63.5496   82.6989   13.1337 N.am    1  UNL1       -0.2746
     14 C          64.0238   83.6643   14.1793 C.2     1  UNL1        0.2649
     15 O          64.6018   83.1526   15.4655 O.2     1  UNL1       -0.2683
     16 O          63.8242   91.5193   13.6803 O.3     1  UNL1       -0.4791
     17 N          67.6928   93.0458   15.3990 N.3     1  UNL1       -0.2737
     18 C          67.5375   92.9002   13.9142 C.3     1  UNL1        0.0758
     19 C          66.2480   92.3914   13.3413 C.3     1  UNL1        0.0609
     20 C          65.1137   92.0282   14.2532 C.3     1  UNL1        0.1687
     21 C          65.2691   92.1737   15.7381 C.3     1  UNL1        0.0609
     22 C          66.5586   92.6826   16.3109 C.3     1  UNL1        0.0758
     23 C          69.2333   95.0309   16.0595 C.3     1  UNL1        0.0173
     24 C          68.9823   93.5546   15.9719 C.3     1  UNL1        0.0576
     25 C          70.0209   92.5871   16.4572 C.3     1  UNL1        0.0173
     26 C          63.6533   81.2219   13.3744 C.3     1  UNL1        0.0937
     27 C          62.4176   80.4193   13.6553 C.3     1  UNL1        0.0199
     28 C          61.7093   79.0978   13.7004 C.3     1  UNL1        0.0018
     29 C          60.9857   80.3505   14.0968 C.3     1  UNL1        0.0018
@<TRIPOS>BOND
     1    23    24    1
     2    24    25    1
     3    24    17    1
     4    17    18    1
     5    18    19    1
     6    19    20    1
     7    20    16    1
     8    16     1    1
     9     1     2   ar
    10     2     3   ar
    11     3     4   ar
    12     4     5   ar
    13     5     6   ar
    14     5     7   ar
    15     7     8   ar
    16     8     9   ar
    17     9    10    1
    18    10    11    1
    19    11    12    1
    20    11    13    1
    21    13    26    1
    22    26    27    1
    23    27    28    1
    24    28    29    1
    25    13    14   am
    26    14    15    2
    27    20    21    1
    28    21    22    1
    29    22    17    1
    30     6     1   ar
    31    14     8    1
    32     9     4   ar
    33    29    27    1
@<TRIPOS>MOLECULE
*****
 29 33 0 0 0
SMALL
GASTEIGER

@<TRIPOS>ATOM
      1 C          63.8563   87.5746   14.6365 C.ar    1  UNL1        0.1385
      2 C          63.3221   87.7043   13.2408 C.ar    1  UNL1        0.0384
      3 C          63.5883   88.9499   12.4487 C.ar    1  UNL1        0.0203
      4 C          64.3886   90.0658   13.0521 C.ar    1  UNL1        0.0602
      5 C          64.9227   89.9362   14.4477 C.ar    1  UNL1        0.0204
      6 C          64.6566   88.6906   15.2399 C.ar    1  UNL1        0.0384
      7 C          65.6733   91.1929   14.7754 C.ar    1  UNL1        0.0234
      8 C          65.6031   92.0992   13.5822 C.ar    1  UNL1        0.1143
      9 N          64.8090   91.4027   12.5171 N.ar    1  UNL1       -0.3219
     10 C          64.5715   92.0756   11.1979 C.3     1  UNL1        0.1258
     11 C          65.1280   93.4452   10.9436 C.3     1  UNL1        0.0982
     12 C          64.8904   94.1182    9.6242 C.3     1  UNL1        0.0236
     13 N          65.9220   94.1417   12.0086 N.am    1  UNL1       -0.2746
     14 C          66.1595   93.4687   13.3280 C.2     1  UNL1        0.2649
     15 O          66.9536   94.1653   14.3931 O.2     1  UNL1       -0.2683
     16 O          63.5902   86.3290   15.4287 O.3     1  UNL1       -0.4791
     17 N          63.0207   82.3971   13.3155 N.3     1  UNL1       -0.2737
     18 C          62.0514   82.8252   14.3771 C.3     1  UNL1        0.0758
     19 C          62.2412   84.1359   15.0816 C.3     1  UNL1        0.0609
     20 C          63.4003   85.0184   14.7243 C.3     1  UNL1        0.1687
     21 C          64.3697   84.5902   13.6626 C.3     1  UNL1        0.0609
     22 C          64.1798   83.2795   12.9582 C.3     1  UNL1        0.0758
     23 C          62.3872   79.8783   13.3815 C.3     1  UNL1        0.0173
     24 C          62.8308   81.0865   12.6111 C.3     1  UNL1        0.0576
     25 C          63.0847   80.9840   11.1362 C.3     1  UNL1        0.0173
     26 C          66.4785   95.5113   11.7544 C.3     1  UNL1        0.0937
     27 C          67.0445   95.8528   10.4079 C.3     1  UNL1        0.0199
     28 C          67.7754   95.4425    9.1639 C.3     1  UNL1        0.0018
     29 C          67.2938   96.8546    9.3196 C.3     1  UNL1        0.0018
@<TRIPOS>BOND
     1    23    24    1
     2    24    25    1
     3    24    17    1
     4    17    18    1
     5    18    19    1
     6    19    20    1
     7    20    16    1
     8    16     1    1
     9     1     2   ar
    10     2     3   ar
    11     3     4   ar
    12     4     5   ar
    13     5     6   ar
    14     5     7   ar
    15     7     8   ar
    16     8     9   ar
    17     9    10    1
    18    10    11    1
    19    11    12    1
    20    11    13    1
    21    13    26    1
    22    26    27    1
    23    27    28    1
    24    28    29    1
    25    13    14   am
    26    14    15    2
    27    20    21    1
    28    21    22    1
    29    22    17    1
    30     6     1   ar
    31    14     8    1
    32     9     4   ar
    33    29    27    1
@<TRIPOS>MOLECULE
*****
 29 33 0 0 0
SMALL
GASTEIGER

@<TRIPOS>ATOM
      1 C          62.2194   88.4914   10.7057 C.ar    1  UNL1        0.1385
      2 C          62.3870   89.6050    9.7149 C.ar    1  UNL1        0.0384
      3 C          63.1987   90.8138   10.0754 C.ar    1  UNL1        0.0203
      4 C          63.8427   90.9090   11.4268 C.ar    1  UNL1        0.0602
      5 C          63.6751   89.7954   12.4176 C.ar    1  UNL1        0.0204
      6 C          62.8634   88.5866   12.0571 C.ar    1  UNL1        0.0384
      7 C          64.4226   90.1674   13.6638 C.ar    1  UNL1        0.0234
      8 C          65.0522   91.5108   13.4431 C.ar    1  UNL1        0.1143
      9 N          64.6938   91.9693   12.0606 N.ar    1  UNL1       -0.3219
     10 C          65.1887   93.2927   11.5574 C.3     1  UNL1        0.1258
     11 C          66.0421   94.1579   12.4368 C.3     1  UNL1        0.0982
     12 C          66.5371   95.4815   11.9336 C.3     1  UNL1        0.0236
     13 N          66.4005   93.6995   13.8193 N.am    1  UNL1       -0.2746
     14 C          65.9055   92.3759   14.3225 C.2     1  UNL1        0.2649
     15 O          66.2639   91.9175   15.7051 O.2     1  UNL1       -0.2683
     16 O          61.4078   87.2826   10.3452 O.3     1  UNL1       -0.4791
     17 N          63.0910   83.1624   11.0093 N.3     1  UNL1       -0.2737
     18 C          62.3941   83.8773   12.1288 C.3     1  UNL1        0.0758
     19 C          61.8330   85.2507   11.9075 C.3     1  UNL1        0.0609
     20 C          61.9688   85.9092   10.5666 C.3     1  UNL1        0.1687
     21 C          62.6658   85.1943    9.4471 C.3     1  UNL1        0.0609
     22 C          63.2268   83.8209    9.6685 C.3     1  UNL1        0.0758
     23 C          63.2432   80.6583   10.3338 C.3     1  UNL1        0.0173
     24 C          63.6520   81.7890   11.2307 C.3     1  UNL1        0.0576
     25 C          64.6219   81.5463   12.3490 C.3     1  UNL1        0.0173
     26 C          67.2538   94.5647   14.6988 C.3     1  UNL1        0.0937
     27 C          68.4114   93.9673   15.4425 C.3     1  UNL1        0.0199
     28 C          69.6864   94.1368   16.2142 C.3     1  UNL1        0.0018
     29 C          69.1412   92.7629   15.9591 C.3     1  UNL1        0.0018
@<TRIPOS>BOND
     1    23    24    1
     2    24    25    1
     3    24    17    1
     4    17    18    1
     5    18    19    1
     6    19    20    1
     7    20    16    1
     8    16     1    1
     9     1     2   ar
    10     2     3   ar
    11     3     4   ar
    12     4     5   ar
    13     5     6   ar
    14     5     7   ar
    15     7     8   ar
    16     8     9   ar
    17     9    10    1
    18    10    11    1
    19    11    12    1
    20    11    13    1
    21    13    26    1
    22    26    27    1
    23    27    28    1
    24    28    29    1
    25    13    14   am
    26    14    15    2
    27    20    21    1
    28    21    22    1
    29    22    17    1
    30     6     1   ar
    31    14     8    1
    32     9     4   ar
    33    29    27    1
@<TRIPOS>MOLECULE
*****
 29 33 0 0 0
SMALL
GASTEIGER

@<TRIPOS>ATOM
      1 C          63.1571   84.4966   14.8677 C.ar    1  UNL1        0.1385
      2 C          63.9486   85.2639   15.8849 C.ar    1  UNL1        0.0384
      3 C          64.3373   86.6872   15.6147 C.ar    1  UNL1        0.0203
      4 C          63.9345   87.3432   14.3273 C.ar    1  UNL1        0.0602
      5 C          63.1430   86.5759   13.3101 C.ar    1  UNL1        0.0204
      6 C          62.7543   85.1526   13.5803 C.ar    1  UNL1        0.0384
      7 C          62.8907   87.4805   12.1405 C.ar    1  UNL1        0.0234
      8 C          63.5263   88.8070   12.4349 C.ar    1  UNL1        0.1143
      9 N          64.1714   88.7221   13.7864 N.ar    1  UNL1       -0.3219
     10 C          64.8912   89.9113   14.3498 C.3     1  UNL1        0.1258
     11 C          64.9658   91.1855   13.5618 C.3     1  UNL1        0.0982
     12 C          65.6856   92.3748   14.1253 C.3     1  UNL1        0.0236
     13 N          64.3207   91.2703   12.2103 N.am    1  UNL1       -0.2746
     14 C          63.6009   90.0810   11.6468 C.2     1  UNL1        0.2649
     15 O          62.9557   90.1659   10.2952 O.2     1  UNL1       -0.2683
     16 O          62.7684   83.0732   15.1379 O.3     1  UNL1       -0.4791
     17 N          62.7449   80.0719   11.7850 N.3     1  UNL1       -0.2737
     18 C          63.4836   81.3677   11.6265 C.3     1  UNL1        0.0758
     19 C          63.4914   82.3682   12.7441 C.3     1  UNL1        0.0609
     20 C          62.7606   82.0728   14.0203 C.3     1  UNL1        0.1687
     21 C          62.0218   80.7769   14.1788 C.3     1  UNL1        0.0609
     22 C          62.0140   79.7765   13.0612 C.3     1  UNL1        0.0758
     23 C          62.7173   79.5392    9.2423 C.3     1  UNL1        0.0173
     24 C          62.7370   79.0715   10.6674 C.3     1  UNL1        0.0576
     25 C          62.7489   77.6034   10.9749 C.3     1  UNL1        0.0173
     26 C          64.3953   92.5445   11.4222 C.3     1  UNL1        0.0937
     27 C          65.6633   92.9130   10.7105 C.3     1  UNL1        0.0199
     28 C          67.0845   92.6032   10.3442 C.3     1  UNL1        0.0018
     29 C          66.4382   93.8610    9.8440 C.3     1  UNL1        0.0018
@<TRIPOS>BOND
     1    23    24    1
     2    24    25    1
     3    24    17    1
     4    17    18    1
     5    18    19    1
     6    19    20    1
     7    20    16    1
     8    16     1    1
     9     1     2   ar
    10     2     3   ar
    11     3     4   ar
    12     4     5   ar
    13     5     6   ar
    14     5     7   ar
    15     7     8   ar
    16     8     9   ar
    17     9    10    1
    18    10    11    1
    19    11    12    1
    20    11    13    1
    21    13    26    1
    22    26    27    1
    23    27    28    1
    24    28    29    1
    25    13    14   am
    26    14    15    2
    27    20    21    1
    28    21    22    1
    29    22    17    1
    30     6     1   ar
    31    14     8    1
    32     9     4   ar
    33    29    27    1
@<TRIPOS>MOLECULE
*****
 29 33 0 0 0
SMALL
GASTEIGER

@<TRIPOS>ATOM
      1 C          59.1041   93.1237   -0.8508 C.ar    1  UNL1        0.1385
      2 C          59.3747   92.7488   -2.2777 C.ar    1  UNL1        0.0384
      3 C          58.4501   93.2136   -3.3635 C.ar    1  UNL1        0.0203
      4 C          57.2549   94.0533   -3.0224 C.ar    1  UNL1        0.0602
      5 C          56.9843   94.4283   -1.5954 C.ar    1  UNL1        0.0204
      6 C          57.9089   93.9635   -0.5096 C.ar    1  UNL1        0.0384
      7 C          55.7367   95.2604   -1.5634 C.ar    1  UNL1        0.0234
      8 C          55.2362   95.3998   -2.9706 C.ar    1  UNL1        0.1143
      9 N          56.1745   94.6538   -3.8723 N.ar    1  UNL1       -0.3219
     10 C          55.9239   94.6176   -5.3507 C.3     1  UNL1        0.1258
     11 C          54.7350   95.3274   -5.9275 C.3     1  UNL1        0.0982
     12 C          54.4844   95.2912   -7.4060 C.3     1  UNL1        0.0236
     13 N          53.7967   96.0734   -5.0258 N.am    1  UNL1       -0.2746
     14 C          54.0474   96.1096   -3.5473 C.2     1  UNL1        0.2649
     15 O          53.1090   96.8557   -2.6455 O.2     1  UNL1       -0.2683
     16 O          60.0288   92.6589    0.2351 O.3     1  UNL1       -0.4791
     17 N          63.5847   95.1643    1.3877 N.3     1  UNL1       -0.2737
     18 C          63.6042   93.6826    1.6203 C.3     1  UNL1        0.0758
     19 C          62.4188   92.8474    1.2361 C.3     1  UNL1        0.0609
     20 C          61.2141   93.4940    0.6193 C.3     1  UNL1        0.1687
     21 C          61.1946   94.9758    0.3867 C.3     1  UNL1        0.0609
     22 C          62.3799   95.8109    0.7709 C.3     1  UNL1        0.0758
     23 C          65.1813   96.1008    3.2109 C.3     1  UNL1        0.0173
     24 C          64.7700   95.9994    1.7719 C.3     1  UNL1        0.0576
     25 C          65.5440   96.7332    0.7171 C.3     1  UNL1        0.0173
     26 C          52.6078   96.7833   -5.6025 C.3     1  UNL1        0.0937
     27 C          51.2214   96.3241   -5.2604 C.3     1  UNL1        0.0199
     28 C          50.2364   95.8026   -4.2565 C.3     1  UNL1        0.0018
     29 C          49.8051   96.0502   -5.6716 C.3     1  UNL1        0.0018
@<TRIPOS>BOND
     1    23    24    1
     2    24    25    1
     3    24    17    1
     4    17    18    1
     5    18    19    1
     6    19    20    1
     7    20    16    1
     8    16     1    1
     9     1     2   ar
    10     2     3   ar
    11     3     4   ar
    12     4     5   ar
    13     5     6   ar
    14     5     7   ar
    15     7     8   ar
    16     8     9   ar
    17     9    10    1
    18    10    11    1
    19    11    12    1
    20    11    13    1
    21    13    26    1
    22    26    27    1
    23    27    28    1
    24    28    29    1
    25    13    14   am
    26    14    15    2
    27    20    21    1
    28    21    22    1
    29    22    17    1
    30     6     1   ar
    31    14     8    1
    32     9     4   ar
    33    29    27    1
@<TRIPOS>MOLECULE
*****
 29 33 0 0 0
SMALL
GASTEIGER

@<TRIPOS>ATOM
      1 C          61.7775   88.6312   11.0228 C.ar    1  UNL1        0.1385
      2 C          62.0555   89.6773    9.9845 C.ar    1  UNL1        0.0384
      3 C          62.9747   90.8203   10.2987 C.ar    1  UNL1        0.0203
      4 C          63.6158   90.9171   11.6514 C.ar    1  UNL1        0.0602
      5 C          63.3378   89.8709   12.6897 C.ar    1  UNL1        0.0204
      6 C          62.4187   88.7279   12.3754 C.ar    1  UNL1        0.0384
      7 C          64.1086   90.2284   13.9258 C.ar    1  UNL1        0.0234
      8 C          64.8630   91.4955   13.6514 C.ar    1  UNL1        0.1143
      9 N          64.5585   91.9212   12.2457 N.ar    1  UNL1       -0.3219
     10 C          65.1788   93.1680   11.6886 C.3     1  UNL1        0.1258
     11 C          66.1037   93.9892   12.5372 C.3     1  UNL1        0.0982
     12 C          66.7241   95.2361   11.9800 C.3     1  UNL1        0.0236
     13 N          66.4083   93.5636   13.9429 N.am    1  UNL1       -0.2746
     14 C          65.7879   92.3167   14.5000 C.2     1  UNL1        0.2649
     15 O          66.0926   91.8910   15.9058 O.2     1  UNL1       -0.2683
     16 O          60.8584   87.4881   10.7086 O.3     1  UNL1       -0.4791
     17 N          61.4846   85.0587    6.9728 N.3     1  UNL1       -0.2737
     18 C          62.6120   85.2440    7.9447 C.3     1  UNL1        0.0758
     19 C          62.4033   86.0538    9.1900 C.3     1  UNL1        0.0609
     20 C          61.0671   86.6783    9.4633 C.3     1  UNL1        0.1687
     21 C          59.9397   86.4931    8.4913 C.3     1  UNL1        0.0609
     22 C          60.1485   85.6833    7.2461 C.3     1  UNL1        0.0758
     23 C          60.6273   83.3026    5.2608 C.3     1  UNL1        0.0173
     24 C          61.6934   84.2489    5.7276 C.3     1  UNL1        0.0576
     25 C          62.9683   84.3855    4.9491 C.3     1  UNL1        0.0173
     26 C          67.3333   94.3848   14.7915 C.3     1  UNL1        0.0937
     27 C          68.4997   93.7348   15.4749 C.3     1  UNL1        0.0199
     28 C          69.8658   93.8316   16.0867 C.3     1  UNL1        0.0018
     29 C          69.1537   92.5120   16.0469 C.3     1  UNL1        0.0018
@<TRIPOS>BOND
     1    23    24    1
     2    24    25    1
     3    24    17    1
     4    17    18    1
     5    18    19    1
     6    19    20    1
     7    20    16    1
     8    16     1    1
     9     1     2   ar
    10     2     3   ar
    11     3     4   ar
    12     4     5   ar
    13     5     6   ar
    14     5     7   ar
    15     7     8   ar
    16     8     9   ar
    17     9    10    1
    18    10    11    1
    19    11    12    1
    20    11    13    1
    21    13    26    1
    22    26    27    1
    23    27    28    1
    24    28    29    1
    25    13    14   am
    26    14    15    2
    27    20    21    1
    28    21    22    1
    29    22    17    1
    30     6     1   ar
    31    14     8    1
    32     9     4   ar
    33    29    27    1
