@<TRIPOS>MOLECULE
*****
 34 38 0 0 0
SMALL
GASTEIGER

@<TRIPOS>ATOM
      1 C          63.8356   87.3306   13.9516 C.ar    1  UNL1        0.0016
      2 C          64.1349   87.2626   15.4198 C.ar    1  UNL1        0.0016
      3 C          64.1242   85.9397   16.1268 C.ar    1  UNL1        0.0191
      4 C          63.8143   84.6849   15.3657 C.ar    1  UNL1        0.0828
      5 N          63.8036   83.3620   16.0728 N.ar    1  UNL1       -0.2422
      6 C          63.4936   82.1073   15.3116 C.ar    1  UNL1        0.1175
      7 C          63.1943   82.1754   13.8433 C.ar    1  UNL1        0.0989
      8 C          63.2050   83.4982   13.1362 C.ar    1  UNL1        0.0826
      9 C          63.5150   84.7530   13.8974 C.ar    1  UNL1        0.0350
     10 C          63.5257   86.0758   13.1904 C.ar    1  UNL1        0.0030
     11 N          62.8737   83.2553   11.6936 N.ar    1  UNL1       -0.2815
     12 C          62.6583   81.7824   11.5090 C.ar    1  UNL1        0.3316
     13 O          62.3066   81.0972   10.2218 O.2     1  UNL1       -0.2463
     14 N          62.8565   81.1149   12.8377 N.ar    1  UNL1       -0.2765
     15 C          62.7376   79.6451   13.1124 C.3     1  UNL1        0.1352
     16 C          63.8677   91.2992   11.8303 C.ar    1  UNL1        0.2249
     17 C          63.1363   90.1346   11.2314 C.ar    1  UNL1        0.0577
     18 C          63.1256   88.8117   11.9385 C.ar    1  UNL1        0.0063
     19 C          63.8463   88.6535   13.2445 C.ar    1  UNL1        0.0194
     20 C          64.5778   89.8181   13.8433 C.ar    1  UNL1        0.1020
     21 N          64.5885   91.1409   13.1363 N.ar    1  UNL1       -0.2101
     22 O          63.8784   92.6220   11.1232 O.3     1  UNL1       -0.4602
     23 C          65.1569   93.1539   10.5466 C.3     1  UNL1        0.2085
     24 C          66.0567   94.0138   11.3839 C.3     1  UNL1        0.0647
     25 C          66.4537   95.3772   10.9006 C.3     1  UNL1        0.0760
     26 C          68.0756   94.3618    9.1433 C.3     1  UNL1        0.0897
     27 N          67.2712   95.5215    9.6513 N.3     1  UNL1       -0.2702
     28 C          67.2843   96.8254    8.9100 C.3     1  UNL1        0.0897
     29 C          62.7752   84.3017   10.6234 C.3     1  UNL1        0.0949
     30 C          63.6035   84.1817    9.3786 C.3     1  UNL1        0.0548
     31 C          63.5050   85.2281    8.3083 C.3     1  UNL1        0.1441
     32 O          62.5782   86.3945    8.4829 O.3     1  UNL1       -0.3536
     33 C          61.7500   86.5146    9.7277 C.3     1  UNL1        0.1441
     34 C          61.8485   85.4682   10.7979 C.3     1  UNL1        0.0548
@<TRIPOS>BOND
     1    26    27    1
     2    27    28    1
     3    27    25    1
     4    25    24    1
     5    24    23    1
     6    23    22    1
     7    22    16    1
     8    16    17   ar
     9    17    18   ar
    10    18    19   ar
    11    19     1    1
    12     1     2   ar
    13     2     3   ar
    14     3     4   ar
    15     4     5   ar
    16     5     6   ar
    17     6     7   ar
    18     7     8   ar
    19     8     9   ar
    20     9    10   ar
    21     8    11   ar
    22    11    29    1
    23    29    30    1
    24    30    31    1
    25    31    32    1
    26    32    33    1
    27    33    34    1
    28    11    12   ar
    29    12    13    2
    30    12    14   ar
    31    14    15    1
    32    19    20   ar
    33    20    21   ar
    34    21    16   ar
    35    10     1   ar
    36    34    29    1
    37     9     4   ar
    38    14     7   ar
@<TRIPOS>MOLECULE
*****
 34 38 0 0 0
SMALL
GASTEIGER

@<TRIPOS>ATOM
      1 C          63.8166   87.1966   14.0206 C.ar    1  UNL1        0.0016
      2 C          64.1022   87.0834   15.4888 C.ar    1  UNL1        0.0016
      3 C          64.0847   85.7395   16.1548 C.ar    1  UNL1        0.0191
      4 C          63.7814   84.5088   15.3526 C.ar    1  UNL1        0.0828
      5 N          63.7639   83.1649   16.0187 N.ar    1  UNL1       -0.2422
      6 C          63.4606   81.9342   15.2165 C.ar    1  UNL1        0.1175
      7 C          63.1749   82.0474   13.7483 C.ar    1  UNL1        0.0989
      8 C          63.1925   83.3913   13.0823 C.ar    1  UNL1        0.0826
      9 C          63.4957   84.6220   13.8845 C.ar    1  UNL1        0.0350
     10 C          63.5133   85.9659   13.2185 C.ar    1  UNL1        0.0030
     11 N          62.8745   83.1930   11.6299 N.ar    1  UNL1       -0.2815
     12 C          62.6604   81.7266   11.3983 C.ar    1  UNL1        0.3316
     13 O          62.3204   81.0814   10.0875 O.2     1  UNL1       -0.2463
     14 N          62.8461   81.0185   12.7076 N.ar    1  UNL1       -0.2765
     15 C          62.7243   79.5410   12.9360 C.3     1  UNL1        0.1352
     16 C          63.8692   91.2284   12.0225 C.ar    1  UNL1        0.2249
     17 C          63.1675   90.0758   11.3674 C.ar    1  UNL1        0.0577
     18 C          63.1499   88.7319   12.0335 C.ar    1  UNL1        0.0063
     19 C          63.8341   88.5405   13.3546 C.ar    1  UNL1        0.0194
     20 C          64.5359   89.6931   14.0096 C.ar    1  UNL1        0.1020
     21 N          64.5535   91.0370   13.3436 N.ar    1  UNL1       -0.2101
     22 O          63.8868   92.5723   11.3565 O.3     1  UNL1       -0.4602
     23 C          65.0345   92.9548   10.4697 C.3     1  UNL1        0.2085
     24 C          66.3499   93.3488   11.0735 C.3     1  UNL1        0.0647
     25 C          66.4050   93.8622   12.4818 C.3     1  UNL1        0.0760
     26 C          67.9919   91.9118   13.1359 C.3     1  UNL1        0.0897
     27 N          67.1767   93.1094   13.5248 N.3     1  UNL1       -0.2702
     28 C          67.1332   93.5542   14.9566 C.3     1  UNL1        0.0897
     29 C          62.7861   84.2718   10.5914 C.3     1  UNL1        0.0949
     30 C          61.8482   85.4260   10.7869 C.3     1  UNL1        0.0548
     31 C          61.7598   86.5049    9.7485 C.3     1  UNL1        0.1441
     32 O          62.6093   86.4295    8.5146 O.3     1  UNL1       -0.3536
     33 C          63.5472   85.2753    8.3191 C.3     1  UNL1        0.1441
     34 C          63.6356   84.1965    9.3574 C.3     1  UNL1        0.0548
@<TRIPOS>BOND
     1    26    27    1
     2    27    28    1
     3    27    25    1
     4    25    24    1
     5    24    23    1
     6    23    22    1
     7    22    16    1
     8    16    17   ar
     9    17    18   ar
    10    18    19   ar
    11    19     1    1
    12     1     2   ar
    13     2     3   ar
    14     3     4   ar
    15     4     5   ar
    16     5     6   ar
    17     6     7   ar
    18     7     8   ar
    19     8     9   ar
    20     9    10   ar
    21     8    11   ar
    22    11    29    1
    23    29    30    1
    24    30    31    1
    25    31    32    1
    26    32    33    1
    27    33    34    1
    28    11    12   ar
    29    12    13    2
    30    12    14   ar
    31    14    15    1
    32    19    20   ar
    33    20    21   ar
    34    21    16   ar
    35    10     1   ar
    36    34    29    1
    37     9     4   ar
    38    14     7   ar
@<TRIPOS>MOLECULE
*****
 34 38 0 0 0
SMALL
GASTEIGER

@<TRIPOS>ATOM
      1 C          63.0357   88.1910   11.9559 C.ar    1  UNL1        0.0016
      2 C          62.7385   88.6701   10.5659 C.ar    1  UNL1        0.0016
      3 C          62.5378   87.6791    9.4580 C.ar    1  UNL1        0.0191
      4 C          62.6341   86.2090    9.7400 C.ar    1  UNL1        0.0828
      5 N          62.4334   85.2180    8.6320 N.ar    1  UNL1       -0.2422
      6 C          62.5297   83.7479    8.9141 C.ar    1  UNL1        0.1175
      7 C          62.8269   83.2689   10.3042 C.ar    1  UNL1        0.0989
      8 C          63.0276   84.2599   11.4121 C.ar    1  UNL1        0.0826
      9 C          62.9313   85.7299   11.1300 C.ar    1  UNL1        0.0350
     10 C          63.1320   86.7209   12.2380 C.ar    1  UNL1        0.0030
     11 N          63.3057   83.4958   12.6726 N.ar    1  UNL1       -0.2815
     12 C          63.2769   82.0326   12.3437 C.ar    1  UNL1        0.3316
     13 O          63.5040   80.9072   13.3091 O.2     1  UNL1       -0.2463
     14 N          62.9809   81.8924   10.8798 N.ar    1  UNL1       -0.2765
     15 C          62.8601   80.6021   10.1244 C.3     1  UNL1        0.1352
     16 C          63.6380   91.1641   15.2799 C.ar    1  UNL1        0.2249
     17 C          63.6311   89.6945   15.5802 C.ar    1  UNL1        0.0577
     18 C          63.4303   88.7034   14.4722 C.ar    1  UNL1        0.0063
     19 C          63.2364   89.1820   13.0639 C.ar    1  UNL1        0.0194
     20 C          63.2433   90.6517   12.7636 C.ar    1  UNL1        0.1020
     21 N          63.4441   91.6427   13.8715 N.ar    1  UNL1       -0.2101
     22 O          63.8388   92.1551   16.3878 O.3     1  UNL1       -0.4602
     23 C          65.2245   92.5880   16.7648 C.3     1  UNL1        0.2085
     24 C          66.3571   92.4025   15.7989 C.3     1  UNL1        0.0647
     25 C          66.6508   93.4592   14.7756 C.3     1  UNL1        0.0760
     26 C          67.8221   91.9204   13.0407 C.3     1  UNL1        0.0897
     27 N          66.9112   93.0712   13.3503 N.3     1  UNL1       -0.2702
     28 C          66.2607   93.8340   12.2345 C.3     1  UNL1        0.0897
     29 C          63.5669   84.0906   14.0246 C.3     1  UNL1        0.0949
     30 C          62.4697   84.1416   15.0462 C.3     1  UNL1        0.0548
     31 C          62.7307   84.7364   16.3983 C.3     1  UNL1        0.1441
     32 O          64.0891   85.2802   16.7288 O.3     1  UNL1       -0.3536
     33 C          65.1863   85.2291   15.7073 C.3     1  UNL1        0.1441
     34 C          64.9252   84.6344   14.3553 C.3     1  UNL1        0.0548
@<TRIPOS>BOND
     1    26    27    1
     2    27    28    1
     3    27    25    1
     4    25    24    1
     5    24    23    1
     6    23    22    1
     7    22    16    1
     8    16    17   ar
     9    17    18   ar
    10    18    19   ar
    11    19     1    1
    12     1     2   ar
    13     2     3   ar
    14     3     4   ar
    15     4     5   ar
    16     5     6   ar
    17     6     7   ar
    18     7     8   ar
    19     8     9   ar
    20     9    10   ar
    21     8    11   ar
    22    11    29    1
    23    29    30    1
    24    30    31    1
    25    31    32    1
    26    32    33    1
    27    33    34    1
    28    11    12   ar
    29    12    13    2
    30    12    14   ar
    31    14    15    1
    32    19    20   ar
    33    20    21   ar
    34    21    16   ar
    35    10     1   ar
    36    34    29    1
    37     9     4   ar
    38    14     7   ar
@<TRIPOS>MOLECULE
*****
 34 38 0 0 0
SMALL
GASTEIGER

@<TRIPOS>ATOM
      1 C          60.6914   95.5148   -4.4944 C.ar    1  UNL1        0.0016
      2 C          61.9950   95.9080   -5.1237 C.ar    1  UNL1        0.0016
      3 C          63.2749   95.7524   -4.3571 C.ar    1  UNL1        0.0191
      4 C          63.2512   95.2035   -2.9613 C.ar    1  UNL1        0.0828
      5 N          64.5311   95.0479   -2.1948 N.ar    1  UNL1       -0.2422
      6 C          64.5074   94.4991   -0.7990 C.ar    1  UNL1        0.1175
      7 C          63.2037   94.1058   -0.1698 C.ar    1  UNL1        0.0989
      8 C          61.9239   94.2615   -0.9363 C.ar    1  UNL1        0.0826
      9 C          61.9476   94.8103   -2.3321 C.ar    1  UNL1        0.0350
     10 C          60.6677   94.9659   -3.0987 C.ar    1  UNL1        0.0030
     11 N          60.7995   93.7923   -0.0613 N.ar    1  UNL1       -0.2815
     12 C          61.3846   93.3467    1.2461 C.ar    1  UNL1        0.3316
     13 O          60.6182   92.8028    2.4153 O.2     1  UNL1       -0.2463
     14 N          62.8705   93.5405    1.1790 N.ar    1  UNL1       -0.2765
     15 C          63.8510   93.2244    2.2693 C.3     1  UNL1        0.1352
     16 C          56.8515   95.9816   -6.7940 C.ar    1  UNL1        0.2249
     17 C          57.9691   95.1566   -7.3600 C.ar    1  UNL1        0.0577
     18 C          59.2491   95.0010   -6.5935 C.ar    1  UNL1        0.0063
     19 C          59.4114   95.6704   -5.2610 C.ar    1  UNL1        0.0194
     20 C          58.2939   96.4954   -4.6950 C.ar    1  UNL1        0.1020
     21 N          57.0139   96.6510   -5.4615 N.ar    1  UNL1       -0.2101
     22 O          55.5716   96.1372   -7.5605 O.3     1  UNL1       -0.4602
     23 C          54.3011   95.5449   -7.0268 C.3     1  UNL1        0.2085
     24 C          53.3701   96.3846   -6.2032 C.3     1  UNL1        0.0647
     25 C          53.4712   96.3686   -4.7067 C.3     1  UNL1        0.0760
     26 C          52.3630   95.9418   -2.3959 C.3     1  UNL1        0.0897
     27 N          52.2402   96.1658   -3.8740 N.3     1  UNL1       -0.2702
     28 C          50.8863   96.1869   -4.5194 C.3     1  UNL1        0.0897
     29 C          59.3455   93.7722   -0.4291 C.3     1  UNL1        0.0949
     30 C          58.5585   95.0491   -0.4462 C.3     1  UNL1        0.0548
     31 C          57.1044   95.0291   -0.8140 C.3     1  UNL1        0.1441
     32 O          56.4373   93.7322   -1.1646 O.3     1  UNL1       -0.3536
     33 C          57.2242   92.4553   -1.1475 C.3     1  UNL1        0.1441
     34 C          58.6783   92.4753   -0.7797 C.3     1  UNL1        0.0548
@<TRIPOS>BOND
     1    26    27    1
     2    27    28    1
     3    27    25    1
     4    25    24    1
     5    24    23    1
     6    23    22    1
     7    22    16    1
     8    16    17   ar
     9    17    18   ar
    10    18    19   ar
    11    19     1    1
    12     1     2   ar
    13     2     3   ar
    14     3     4   ar
    15     4     5   ar
    16     5     6   ar
    17     6     7   ar
    18     7     8   ar
    19     8     9   ar
    20     9    10   ar
    21     8    11   ar
    22    11    29    1
    23    29    30    1
    24    30    31    1
    25    31    32    1
    26    32    33    1
    27    33    34    1
    28    11    12   ar
    29    12    13    2
    30    12    14   ar
    31    14    15    1
    32    19    20   ar
    33    20    21   ar
    34    21    16   ar
    35    10     1   ar
    36    34    29    1
    37     9     4   ar
    38    14     7   ar
@<TRIPOS>MOLECULE
*****
 34 38 0 0 0
SMALL
GASTEIGER

@<TRIPOS>ATOM
      1 C          61.6508   95.0955   -3.7291 C.ar    1  UNL1        0.0016
      2 C          63.0960   95.2064   -4.1151 C.ar    1  UNL1        0.0016
      3 C          64.1639   94.7683   -3.1571 C.ar    1  UNL1        0.0191
      4 C          63.7865   94.2193   -1.8131 C.ar    1  UNL1        0.0828
      5 N          64.8544   93.7812   -0.8551 N.ar    1  UNL1       -0.2422
      6 C          64.4770   93.2322    0.4888 C.ar    1  UNL1        0.1175
      7 C          63.0317   93.1213    0.8747 C.ar    1  UNL1        0.0989
      8 C          61.9639   93.5594   -0.0833 C.ar    1  UNL1        0.0826
      9 C          62.3412   94.1084   -1.4272 C.ar    1  UNL1        0.0350
     10 C          61.2734   94.5465   -2.3852 C.ar    1  UNL1        0.0030
     11 N          60.6331   93.3324    0.5706 N.ar    1  UNL1       -0.2815
     12 C          60.8785   92.7540    1.9326 C.ar    1  UNL1        0.3316
     13 O          59.8261   92.3730    2.9314 O.2     1  UNL1       -0.2463
     14 N          62.3609   92.6236    2.1206 N.ar    1  UNL1       -0.2765
     15 C          63.0514   92.0892    3.3404 C.3     1  UNL1        0.1352
     16 C          58.4471   96.4097   -6.6031 C.ar    1  UNL1        0.2249
     17 C          59.7762   95.9469   -7.1220 C.ar    1  UNL1        0.0577
     18 C          60.8441   95.5088   -6.1640 C.ar    1  UNL1        0.0063
     19 C          60.5829   95.5336   -4.6871 C.ar    1  UNL1        0.0194
     20 C          59.2538   95.9964   -4.1682 C.ar    1  UNL1        0.1020
     21 N          58.1859   96.4345   -5.1261 N.ar    1  UNL1       -0.2101
     22 O          57.3792   96.8478   -7.5610 O.3     1  UNL1       -0.4602
     23 C          56.0126   96.2334   -7.4927 C.3     1  UNL1        0.2085
     24 C          55.8568   94.7425   -7.5490 C.3     1  UNL1        0.0647
     25 C          55.6329   93.9637   -6.2867 C.3     1  UNL1        0.0760
     26 C          56.0835   91.8586   -4.8322 C.3     1  UNL1        0.0897
     27 N          56.2864   92.6258   -6.1052 N.3     1  UNL1       -0.2702
     28 C          57.1426   92.0550   -7.1965 C.3     1  UNL1        0.0897
     29 C          59.2923   93.6313   -0.0319 C.3     1  UNL1        0.0949
     30 C          58.4131   92.5094   -0.4991 C.3     1  UNL1        0.0548
     31 C          57.0723   92.8082   -1.1017 C.3     1  UNL1        0.1441
     32 O          56.6108   94.2290   -1.2370 O.3     1  UNL1       -0.3536
     33 C          57.4900   95.3509   -0.7698 C.3     1  UNL1        0.1441
     34 C          58.8307   95.0521   -0.1673 C.3     1  UNL1        0.0548
@<TRIPOS>BOND
     1    26    27    1
     2    27    28    1
     3    27    25    1
     4    25    24    1
     5    24    23    1
     6    23    22    1
     7    22    16    1
     8    16    17   ar
     9    17    18   ar
    10    18    19   ar
    11    19     1    1
    12     1     2   ar
    13     2     3   ar
    14     3     4   ar
    15     4     5   ar
    16     5     6   ar
    17     6     7   ar
    18     7     8   ar
    19     8     9   ar
    20     9    10   ar
    21     8    11   ar
    22    11    29    1
    23    29    30    1
    24    30    31    1
    25    31    32    1
    26    32    33    1
    27    33    34    1
    28    11    12   ar
    29    12    13    2
    30    12    14   ar
    31    14    15    1
    32    19    20   ar
    33    20    21   ar
    34    21    16   ar
    35    10     1   ar
    36    34    29    1
    37     9     4   ar
    38    14     7   ar
@<TRIPOS>MOLECULE
*****
 34 38 0 0 0
SMALL
GASTEIGER

@<TRIPOS>ATOM
      1 C          62.0426   94.6370   -3.3224 C.ar    1  UNL1        0.0016
      2 C          63.0288   95.0929   -4.3566 C.ar    1  UNL1        0.0016
      3 C          62.5431   95.6519   -5.6611 C.ar    1  UNL1        0.0191
      4 C          61.0713   95.7551   -5.9313 C.ar    1  UNL1        0.0828
      5 N          60.5856   96.3142   -7.2358 N.ar    1  UNL1       -0.2422
      6 C          59.1138   96.4174   -7.5060 C.ar    1  UNL1        0.1175
      7 C          58.1276   95.9615   -6.4717 C.ar    1  UNL1        0.0989
      8 C          58.6132   95.4025   -5.1673 C.ar    1  UNL1        0.0826
      9 C          60.0851   95.2993   -4.8971 C.ar    1  UNL1        0.0350
     10 C          60.5708   94.7402   -3.5927 C.ar    1  UNL1        0.0030
     11 N          57.4136   95.0361   -4.3447 N.ar    1  UNL1       -0.2815
     12 C          56.1866   95.3687   -5.1407 C.ar    1  UNL1        0.3316
     13 O          54.7674   95.1651   -4.6996 O.2     1  UNL1       -0.2463
     14 N          56.6278   95.9406   -6.4553 N.ar    1  UNL1       -0.2765
     15 C          55.7274   96.4094   -7.5596 C.3     1  UNL1        0.1352
     16 C          63.4995   92.9598    0.5910 C.ar    1  UNL1        0.2249
     17 C          64.4243   93.7696   -0.2686 C.ar    1  UNL1        0.0577
     18 C          63.9386   94.3287   -1.5731 C.ar    1  UNL1        0.0063
     19 C          62.5283   94.0780   -2.0179 C.ar    1  UNL1        0.0194
     20 C          61.6034   93.2682   -1.1583 C.ar    1  UNL1        0.1020
     21 N          62.0890   92.7091    0.1461 N.ar    1  UNL1       -0.2101
     22 O          63.9851   92.4008    1.8954 O.3     1  UNL1       -0.4602
     23 C          63.1101   92.4672    3.1120 C.3     1  UNL1        0.2085
     24 C          62.1848   91.3311    3.4333 C.3     1  UNL1        0.0647
     25 C          61.1784   91.4726    4.5365 C.3     1  UNL1        0.0760
     26 C          59.5382   92.8161    3.0350 C.3     1  UNL1        0.0897
     27 N          59.7873   91.9404    4.2271 N.3     1  UNL1       -0.2702
     28 C          58.6451   91.5325    5.1097 C.3     1  UNL1        0.0897
     29 C          57.4370   94.4415   -2.9678 C.3     1  UNL1        0.0949
     30 C          57.0057   93.0204   -2.7571 C.3     1  UNL1        0.0548
     31 C          57.0291   92.4256   -1.3802 C.3     1  UNL1        0.1441
     32 O          57.4838   93.2521   -0.2140 O.3     1  UNL1       -0.3536
     33 C          57.9150   94.6733   -0.4246 C.3     1  UNL1        0.1441
     34 C          57.8917   95.2680   -1.8015 C.3     1  UNL1        0.0548
@<TRIPOS>BOND
     1    26    27    1
     2    27    28    1
     3    27    25    1
     4    25    24    1
     5    24    23    1
     6    23    22    1
     7    22    16    1
     8    16    17   ar
     9    17    18   ar
    10    18    19   ar
    11    19     1    1
    12     1     2   ar
    13     2     3   ar
    14     3     4   ar
    15     4     5   ar
    16     5     6   ar
    17     6     7   ar
    18     7     8   ar
    19     8     9   ar
    20     9    10   ar
    21     8    11   ar
    22    11    29    1
    23    29    30    1
    24    30    31    1
    25    31    32    1
    26    32    33    1
    27    33    34    1
    28    11    12   ar
    29    12    13    2
    30    12    14   ar
    31    14    15    1
    32    19    20   ar
    33    20    21   ar
    34    21    16   ar
    35    10     1   ar
    36    34    29    1
    37     9     4   ar
    38    14     7   ar
@<TRIPOS>MOLECULE
*****
 34 38 0 0 0
SMALL
GASTEIGER

@<TRIPOS>ATOM
      1 C          61.7048   95.8660   -4.3970 C.ar    1  UNL1        0.0016
      2 C          62.8742   96.5476   -5.0435 C.ar    1  UNL1        0.0016
      3 C          64.1282   96.7918   -4.2577 C.ar    1  UNL1        0.0191
      4 C          64.2130   96.3545   -2.8254 C.ar    1  UNL1        0.0828
      5 N          65.4671   96.5988   -2.0395 N.ar    1  UNL1       -0.2422
      6 C          65.5519   96.1615   -0.6072 C.ar    1  UNL1        0.1175
      7 C          64.3824   95.4799    0.0393 C.ar    1  UNL1        0.0989
      8 C          63.1284   95.2357   -0.7465 C.ar    1  UNL1        0.0826
      9 C          63.0436   95.6730   -2.1788 C.ar    1  UNL1        0.0350
     10 C          61.7895   95.4287   -2.9647 C.ar    1  UNL1        0.0030
     11 N          62.1453   94.5458    0.1521 N.ar    1  UNL1       -0.2815
     12 C          62.7918   94.3637    1.4933 C.ar    1  UNL1        0.3316
     13 O          62.1656   93.7177    2.6936 O.2     1  UNL1       -0.2463
     14 N          64.1745   94.9411    1.4236 N.ar    1  UNL1       -0.2765
     15 C          65.1737   94.9738    2.5418 C.3     1  UNL1        0.1352
     16 C          57.9423   95.1331   -6.7544 C.ar    1  UNL1        0.2249
     17 C          59.1062   94.1965   -6.8891 C.ar    1  UNL1        0.0577
     18 C          60.3604   94.4408   -6.1033 C.ar    1  UNL1        0.0063
     19 C          60.4506   95.6217   -5.1828 C.ar    1  UNL1        0.0194
     20 C          59.2868   96.5583   -5.0481 C.ar    1  UNL1        0.1020
     21 N          58.0327   96.3141   -5.8339 N.ar    1  UNL1       -0.2101
     22 O          56.6882   94.8889   -7.5402 O.3     1  UNL1       -0.4602
     23 C          56.0701   93.5223   -7.5605 C.3     1  UNL1        0.2085
     24 C          55.4043   92.9819   -6.3297 C.3     1  UNL1        0.0647
     25 C          55.6818   91.5774   -5.8822 C.3     1  UNL1        0.0760
     26 C          57.6670   91.9501   -4.2480 C.3     1  UNL1        0.0897
     27 N          56.3369   91.3286   -4.5559 N.3     1  UNL1       -0.2702
     28 C          55.6620   90.4583   -3.5376 C.3     1  UNL1        0.0897
     29 C          60.7590   94.1139   -0.2244 C.3     1  UNL1        0.0949
     30 C          59.6302   95.1011   -0.1888 C.3     1  UNL1        0.0548
     31 C          58.2439   94.6692   -0.5653 C.3     1  UNL1        0.1441
     32 O          57.9865   93.2501   -0.9774 O.3     1  UNL1       -0.3536
     33 C          59.1152   92.2629   -1.0129 C.3     1  UNL1        0.1441
     34 C          60.5015   92.6947   -0.6365 C.3     1  UNL1        0.0548
@<TRIPOS>BOND
     1    26    27    1
     2    27    28    1
     3    27    25    1
     4    25    24    1
     5    24    23    1
     6    23    22    1
     7    22    16    1
     8    16    17   ar
     9    17    18   ar
    10    18    19   ar
    11    19     1    1
    12     1     2   ar
    13     2     3   ar
    14     3     4   ar
    15     4     5   ar
    16     5     6   ar
    17     6     7   ar
    18     7     8   ar
    19     8     9   ar
    20     9    10   ar
    21     8    11   ar
    22    11    29    1
    23    29    30    1
    24    30    31    1
    25    31    32    1
    26    32    33    1
    27    33    34    1
    28    11    12   ar
    29    12    13    2
    30    12    14   ar
    31    14    15    1
    32    19    20   ar
    33    20    21   ar
    34    21    16   ar
    35    10     1   ar
    36    34    29    1
    37     9     4   ar
    38    14     7   ar
@<TRIPOS>MOLECULE
*****
 34 38 0 0 0
SMALL
GASTEIGER

@<TRIPOS>ATOM
      1 C          63.5744   91.2914   10.9240 C.ar    1  UNL1        0.0016
      2 C          63.9000   92.2489    9.8163 C.ar    1  UNL1        0.0016
      3 C          64.9127   93.3333   10.0357 C.ar    1  UNL1        0.0191
      4 C          65.6000   93.4603   11.3630 C.ar    1  UNL1        0.0828
      5 N          66.6128   94.5448   11.5824 N.ar    1  UNL1       -0.2422
      6 C          67.3001   94.6718   12.9097 C.ar    1  UNL1        0.1175
      7 C          66.9745   93.7142   14.0175 C.ar    1  UNL1        0.0989
      8 C          65.9617   92.6298   13.7980 C.ar    1  UNL1        0.0826
      9 C          65.2744   92.5028   12.4708 C.ar    1  UNL1        0.0350
     10 C          64.2616   91.4184   12.2513 C.ar    1  UNL1        0.0030
     11 N          65.8473   91.8387   15.0673 N.ar    1  UNL1       -0.2815
     12 C          66.7894   92.4342   16.0711 C.ar    1  UNL1        0.3316
     13 O          66.9982   91.9547   17.4771 O.2     1  UNL1       -0.2463
     14 N          67.4860   93.5934   15.4223 N.ar    1  UNL1       -0.2765
     15 C          68.5138   94.4766   16.0655 C.3     1  UNL1        0.1352
     16 C          60.5360   88.0379   10.2658 C.ar    1  UNL1        0.2249
     17 C          60.4161   89.3370    9.5255 C.ar    1  UNL1        0.0577
     18 C          61.4289   90.4215    9.7450 C.ar    1  UNL1        0.0063
     19 C          62.5616   90.2069   10.7046 C.ar    1  UNL1        0.0194
     20 C          62.6815   88.9078   11.4449 C.ar    1  UNL1        0.1020
     21 N          61.6687   87.8234   11.2255 N.ar    1  UNL1       -0.2101
     22 O          59.5232   86.9535   10.0464 O.3     1  UNL1       -0.4602
     23 C          58.9040   86.7683    8.6928 C.3     1  UNL1        0.2085
     24 C          59.7776   86.5968    7.4855 C.3     1  UNL1        0.0647
     25 C          60.3791   85.2573    7.1791 C.3     1  UNL1        0.0760
     26 C          62.6967   85.5520    8.3158 C.3     1  UNL1        0.0897
     27 N          61.8698   85.0933    7.1513 N.3     1  UNL1       -0.2702
     28 C          62.5338   84.4706    5.9591 C.3     1  UNL1        0.0897
     29 C          64.9486   90.6591   15.2929 C.3     1  UNL1        0.0949
     30 C          63.8272   90.7496   16.2850 C.3     1  UNL1        0.0548
     31 C          62.9284   89.5701   16.5108 C.3     1  UNL1        0.1441
     32 O          63.1510   88.3000   15.7444 O.3     1  UNL1       -0.3536
     33 C          64.2724   88.2095   14.7523 C.3     1  UNL1        0.1441
     34 C          65.1712   89.3890   14.5266 C.3     1  UNL1        0.0548
@<TRIPOS>BOND
     1    26    27    1
     2    27    28    1
     3    27    25    1
     4    25    24    1
     5    24    23    1
     6    23    22    1
     7    22    16    1
     8    16    17   ar
     9    17    18   ar
    10    18    19   ar
    11    19     1    1
    12     1     2   ar
    13     2     3   ar
    14     3     4   ar
    15     4     5   ar
    16     5     6   ar
    17     6     7   ar
    18     7     8   ar
    19     8     9   ar
    20     9    10   ar
    21     8    11   ar
    22    11    29    1
    23    29    30    1
    24    30    31    1
    25    31    32    1
    26    32    33    1
    27    33    34    1
    28    11    12   ar
    29    12    13    2
    30    12    14   ar
    31    14    15    1
    32    19    20   ar
    33    20    21   ar
    34    21    16   ar
    35    10     1   ar
    36    34    29    1
    37     9     4   ar
    38    14     7   ar
@<TRIPOS>MOLECULE
*****
 34 38 0 0 0
SMALL
GASTEIGER

@<TRIPOS>ATOM
      1 C          63.0359   87.7299   11.6597 C.ar    1  UNL1        0.0016
      2 C          62.7616   88.1477   10.2454 C.ar    1  UNL1        0.0016
      3 C          62.5801   87.1092    9.1785 C.ar    1  UNL1        0.0191
      4 C          62.6729   85.6529    9.5258 C.ar    1  UNL1        0.0828
      5 N          62.4914   84.6143    8.4587 N.ar    1  UNL1       -0.2422
      6 C          62.5842   83.1580    8.8060 C.ar    1  UNL1        0.1175
      7 C          62.8585   82.7403   10.2204 C.ar    1  UNL1        0.0989
      8 C          63.0399   83.7788   11.2873 C.ar    1  UNL1        0.0826
      9 C          62.9472   85.2351   10.9400 C.ar    1  UNL1        0.0350
     10 C          63.1286   86.2737   12.0070 C.ar    1  UNL1        0.0030
     11 N          63.2976   83.0707   12.5843 N.ar    1  UNL1       -0.2815
     12 C          63.2753   81.5946   12.3189 C.ar    1  UNL1        0.3316
     13 O          63.4872   80.5126   13.3360 O.2     1  UNL1       -0.2463
     14 N          63.0039   81.3904   10.8579 N.ar    1  UNL1       -0.2765
     15 C          62.8968   80.0683   10.1574 C.3     1  UNL1        0.1352
     16 C          63.5804   90.8455   14.8608 C.ar    1  UNL1        0.2249
     17 C          63.2896   91.2629   13.4497 C.ar    1  UNL1        0.0577
     18 C          63.1081   90.2244   12.3827 C.ar    1  UNL1        0.0063
     19 C          63.2174   88.7685   12.7268 C.ar    1  UNL1        0.0194
     20 C          63.5081   88.3511   14.1379 C.ar    1  UNL1        0.1020
     21 N          63.6896   89.3896   15.2049 N.ar    1  UNL1       -0.2101
     22 O          63.7619   91.8840   15.9279 O.3     1  UNL1       -0.4602
     23 C          65.1269   92.4373   16.2114 C.3     1  UNL1        0.2085
     24 C          66.1403   92.5351   15.1098 C.3     1  UNL1        0.0647
     25 C          67.1597   93.6354   15.1240 C.3     1  UNL1        0.0760
     26 C          69.3970   94.5970   16.0296 C.3     1  UNL1        0.0897
     27 N          68.4685   93.4359   15.8290 N.3     1  UNL1       -0.2702
     28 C          68.8490   92.0755   16.3335 C.3     1  UNL1        0.0897
     29 C          63.5357   83.7241   13.9134 C.3     1  UNL1        0.0949
     30 C          64.8859   84.2903   14.2396 C.3     1  UNL1        0.0548
     31 C          65.1241   84.9437   15.5687 C.3     1  UNL1        0.1441
     32 O          64.0120   85.0310   16.5715 O.3     1  UNL1       -0.3536
     33 C          62.6618   84.4648   16.2453 C.3     1  UNL1        0.1441
     34 C          62.4236   83.8114   14.9163 C.3     1  UNL1        0.0548
@<TRIPOS>BOND
     1    26    27    1
     2    27    28    1
     3    27    25    1
     4    25    24    1
     5    24    23    1
     6    23    22    1
     7    22    16    1
     8    16    17   ar
     9    17    18   ar
    10    18    19   ar
    11    19     1    1
    12     1     2   ar
    13     2     3   ar
    14     3     4   ar
    15     4     5   ar
    16     5     6   ar
    17     6     7   ar
    18     7     8   ar
    19     8     9   ar
    20     9    10   ar
    21     8    11   ar
    22    11    29    1
    23    29    30    1
    24    30    31    1
    25    31    32    1
    26    32    33    1
    27    33    34    1
    28    11    12   ar
    29    12    13    2
    30    12    14   ar
    31    14    15    1
    32    19    20   ar
    33    20    21   ar
    34    21    16   ar
    35    10     1   ar
    36    34    29    1
    37     9     4   ar
    38    14     7   ar
