@<TRIPOS>MOLECULE
*****
 23 26 0 0 0
SMALL
GASTEIGER

@<TRIPOS>ATOM
      1 O          61.9536   82.2984   14.2879 O.2     1  UNL1       -0.2448
      2 C          63.1907   83.0370   13.8709 C.2     1  UNL1        0.3428
      3 C          63.5193   83.1879   12.4151 C.2     1  UNL1        0.0959
      4 C          64.4545   82.3187   11.6277 C.2     1  UNL1        0.1049
      5 N          64.4836   82.8281   10.2171 N.2     1  UNL1       -0.2476
      6 C          63.5664   84.0120   10.1327 C.2     1  UNL1        0.0638
      7 C          63.1970   84.9163    8.9945 C.3     1  UNL1        0.0749
      8 C          62.2315   86.0429    9.2146 C.2     1  UNL1        0.0168
      9 C          61.6355   86.2653   10.5730 C.2     1  UNL1        0.1298
     10 O          60.6700   87.3920   10.7932 O.2     1  UNL1       -0.5058
     11 C          62.0050   85.3610   11.7113 C.2     1  UNL1        0.0377
     12 C          62.9704   84.2344   11.4912 C.2     1  UNL1        0.0246
     13 H          60.4392   87.9569   10.0821 H       1  UNL1        0.2922
     14 O          64.0992   83.6249   14.9097 O.3     1  UNL1       -0.4454
     15 C          64.7566   84.9512   14.6672 C.3     1  UNL1        0.2087
     16 C          64.2064   86.1896   15.3104 C.3     1  UNL1        0.0445
     17 C          63.4548   86.0920   16.6048 C.3     1  UNL1        0.0210
     18 C          62.9047   87.3304   17.2478 C.3     1  UNL1        0.0722
     19 N          63.1062   88.6666   16.5966 N.3     1  UNL1       -0.2727
     20 C          63.8578   88.7643   15.3022 C.3     1  UNL1        0.0722
     21 C          64.4080   87.5257   14.6591 C.3     1  UNL1        0.0210
     22 C          63.4261   88.0158   16.2065 C.3     1  UNL1        0.0722
     23 C          63.9235   86.8961   15.6249 C.3     1  UNL1        0.0210
@<TRIPOS>BOND
     1     1     2    2
     2     2    14    1
     3    14    15    1
     4    15    16    1
     5    16    17    1
     6    17    18    1
     7    18    19    1
     8    19    20    1
     9    20    21    1
    10    19    22    1
    11    22    23    1
    12     2     3    1
    13     3     4    2
    14     4     5    1
    15     5     6    2
    16     6     7    1
    17     7     8    1
    18     8     9    2
    19     9    10    1
    20     9    11    1
    21    11    12    2
    22    21    16    1
    23    12     3    1
    24    23    16    1
    25    12     6    1
    26    10    13    1
@<TRIPOS>MOLECULE
*****
 23 26 0 0 0
SMALL
GASTEIGER

@<TRIPOS>ATOM
      1 O          63.3049   82.5949   14.9230 O.2     1  UNL1       -0.2448
      2 C          63.3506   83.8177   14.0556 C.2     1  UNL1        0.3428
      3 C          63.6369   83.6868   12.5890 C.2     1  UNL1        0.0959
      4 C          64.5717   82.6978   11.9580 C.2     1  UNL1        0.1049
      5 N          64.5512   82.9217   10.4750 N.2     1  UNL1       -0.2476
      6 C          63.6038   84.0491   10.1894 C.2     1  UNL1        0.0638
      7 C          63.1826   84.7061    8.9084 C.3     1  UNL1        0.0749
      8 C          62.1964   85.8360    8.9340 C.2     1  UNL1        0.0168
      9 C          61.6313   86.3088   10.2406 C.2     1  UNL1        0.1298
     10 O          60.6451   87.4388   10.2662 O.2     1  UNL1       -0.5058
     11 C          62.0525   85.6518   11.5216 C.2     1  UNL1        0.0377
     12 C          63.0387   84.5219   11.4960 C.2     1  UNL1        0.0246
     13 H          60.3820   87.8492    9.4660 H       1  UNL1        0.2922
     14 O          63.1099   85.1717   14.6549 O.3     1  UNL1       -0.4454
     15 C          64.2525   86.1272   14.8322 C.3     1  UNL1        0.2087
     16 C          63.9823   87.5716   15.1334 C.3     1  UNL1        0.0445
     17 C          64.3187   88.6249   14.1198 C.3     1  UNL1        0.0210
     18 C          64.0484   90.0692   14.4211 C.3     1  UNL1        0.0722
     19 N          63.4418   90.4604   15.7361 N.3     1  UNL1       -0.2727
     20 C          63.1054   89.4071   16.7497 C.3     1  UNL1        0.0722
     21 C          63.3756   87.9627   16.4483 C.3     1  UNL1        0.0210
     22 C          63.5716   89.6561   15.6161 C.3     1  UNL1        0.0722
     23 C          63.8159   88.3501   15.3438 C.3     1  UNL1        0.0210
@<TRIPOS>BOND
     1     1     2    2
     2     2    14    1
     3    14    15    1
     4    15    16    1
     5    16    17    1
     6    17    18    1
     7    18    19    1
     8    19    20    1
     9    20    21    1
    10    19    22    1
    11    22    23    1
    12     2     3    1
    13     3     4    2
    14     4     5    1
    15     5     6    2
    16     6     7    1
    17     7     8    1
    18     8     9    2
    19     9    10    1
    20     9    11    1
    21    11    12    2
    22    21    16    1
    23    12     3    1
    24    23    16    1
    25    12     6    1
    26    10    13    1
@<TRIPOS>MOLECULE
*****
 23 26 0 0 0
SMALL
GASTEIGER

@<TRIPOS>ATOM
      1 O          63.2132   88.2578   16.3545 O.2     1  UNL1       -0.2448
      2 C          64.0288   88.2236   15.0962 C.2     1  UNL1        0.3428
      3 C          64.1623   89.4584   14.2550 C.2     1  UNL1        0.0959
      4 C          64.8487   90.7298   14.6581 C.2     1  UNL1        0.1049
      5 N          64.7435   91.6957   13.5153 N.2     1  UNL1       -0.2476
      6 C          63.9921   91.0213   12.4060 C.2     1  UNL1        0.0638
      7 C          63.5885   91.4876   11.0387 C.3     1  UNL1        0.0749
      8 C          62.8257   90.5712   10.1286 C.2     1  UNL1        0.0168
      9 C          62.4665   89.1885   10.5858 C.2     1  UNL1        0.1298
     10 O          61.7037   88.2721    9.6755 O.2     1  UNL1       -0.5058
     11 C          62.8701   88.7221   11.9531 C.2     1  UNL1        0.0377
     12 C          63.6329   89.6385   12.8632 C.2     1  UNL1        0.0246
     13 H          61.4516   88.5634    8.8214 H       1  UNL1        0.2922
     14 O          64.7110   86.9545   14.6789 O.3     1  UNL1       -0.4454
     15 C          63.9634   85.6546   14.7140 C.3     1  UNL1        0.2087
     16 C          63.7648   84.8693   13.4516 C.3     1  UNL1        0.0445
     17 C          64.5963   83.6488   13.1888 C.3     1  UNL1        0.0210
     18 C          64.3977   82.8635   11.9263 C.3     1  UNL1        0.0722
     19 N          63.3677   83.2988   10.9265 N.3     1  UNL1       -0.2727
     20 C          62.5362   84.5193   11.1892 C.3     1  UNL1        0.0722
     21 C          62.7348   85.3046   12.4518 C.3     1  UNL1        0.0210
     22 C          63.4404   83.7611   11.6039 C.3     1  UNL1        0.0722
     23 C          63.6199   84.4712   12.7455 C.3     1  UNL1        0.0210
@<TRIPOS>BOND
     1     1     2    2
     2     2    14    1
     3    14    15    1
     4    15    16    1
     5    16    17    1
     6    17    18    1
     7    18    19    1
     8    19    20    1
     9    20    21    1
    10    19    22    1
    11    22    23    1
    12     2     3    1
    13     3     4    2
    14     4     5    1
    15     5     6    2
    16     6     7    1
    17     7     8    1
    18     8     9    2
    19     9    10    1
    20     9    11    1
    21    11    12    2
    22    21    16    1
    23    12     3    1
    24    23    16    1
    25    12     6    1
    26    10    13    1
@<TRIPOS>MOLECULE
*****
 23 26 0 0 0
SMALL
GASTEIGER

@<TRIPOS>ATOM
      1 O          62.9477   84.5940   10.5712 O.2     1  UNL1       -0.2448
      2 C          62.6279   85.6706   11.5655 C.2     1  UNL1        0.3428
      3 C          62.2452   87.0409   11.0902 C.2     1  UNL1        0.0959
      4 C          62.7640   88.3393   11.6334 C.2     1  UNL1        0.1049
      5 N          62.1159   89.4541   10.8672 N.2     1  UNL1       -0.2476
      6 C          61.1966   88.8448    9.8505 C.2     1  UNL1        0.0638
      7 C          60.2971   89.4554    8.8171 C.3     1  UNL1        0.0749
      8 C          59.4775   88.5744    7.9215 C.2     1  UNL1        0.0168
      9 C          59.5574   87.0829    8.0593 C.2     1  UNL1        0.1298
     10 O          58.7378   86.2019    7.1636 O.2     1  UNL1       -0.5058
     11 C          60.4569   86.4723    9.0928 C.2     1  UNL1        0.0377
     12 C          61.2765   87.3533    9.9884 C.2     1  UNL1        0.0246
     13 H          58.1759   86.5834    6.5181 H       1  UNL1        0.2922
     14 O          62.6908   85.3769   13.0352 O.3     1  UNL1       -0.4454
     15 C          63.5090   84.2234   13.5351 C.3     1  UNL1        0.2087
     16 C          62.9676   82.8271   13.4497 C.3     1  UNL1        0.0445
     17 C          63.4942   81.8806   12.4121 C.3     1  UNL1        0.0210
     18 C          62.9527   80.4844   12.3267 C.3     1  UNL1        0.0722
     19 N          61.8846   80.0346   13.2790 N.3     1  UNL1       -0.2727
     20 C          61.3579   80.9811   14.3167 C.3     1  UNL1        0.0722
     21 C          61.8995   82.3774   14.4020 C.3     1  UNL1        0.0210
     22 C          62.1503   80.8092   13.3644 C.3     1  UNL1        0.0722
     23 C          62.6399   82.0718   13.4417 C.3     1  UNL1        0.0210
@<TRIPOS>BOND
     1     1     2    2
     2     2    14    1
     3    14    15    1
     4    15    16    1
     5    16    17    1
     6    17    18    1
     7    18    19    1
     8    19    20    1
     9    20    21    1
    10    19    22    1
    11    22    23    1
    12     2     3    1
    13     3     4    2
    14     4     5    1
    15     5     6    2
    16     6     7    1
    17     7     8    1
    18     8     9    2
    19     9    10    1
    20     9    11    1
    21    11    12    2
    22    21    16    1
    23    12     3    1
    24    23    16    1
    25    12     6    1
    26    10    13    1
@<TRIPOS>MOLECULE
*****
 23 26 0 0 0
SMALL
GASTEIGER

@<TRIPOS>ATOM
      1 O          63.3059   90.5324   16.6898 O.2     1  UNL1       -0.2448
      2 C          63.4869   89.6481   15.4920 C.2     1  UNL1        0.3428
      3 C          63.5858   90.2514   14.1222 C.2     1  UNL1        0.0959
      4 C          62.5814   90.1019   13.0182 C.2     1  UNL1        0.1049
      5 N          63.0814   90.8683   11.8298 N.2     1  UNL1       -0.2476
      6 C          64.3949   91.4916   12.1992 C.2     1  UNL1        0.0638
      7 C          65.3472   92.3570   11.4285 C.3     1  UNL1        0.0749
      8 C          66.6113   92.8411   12.0747 C.2     1  UNL1        0.0168
      9 C          66.9231   92.4599   13.4915 C.2     1  UNL1        0.1298
     10 O          68.1873   92.9441   14.1377 O.2     1  UNL1       -0.5058
     11 C          65.9707   91.5945   14.2622 C.2     1  UNL1        0.0377
     12 C          64.7066   91.1103   13.6160 C.2     1  UNL1        0.0246
     13 H          68.7822   93.4847   13.6562 H       1  UNL1        0.2922
     14 O          63.5689   88.1601   15.6638 O.3     1  UNL1       -0.4454
     15 C          64.4799   87.3530   14.7871 C.3     1  UNL1        0.2087
     16 C          64.0765   85.9748   14.3537 C.3     1  UNL1        0.0445
     17 C          64.3826   84.7942   15.2269 C.3     1  UNL1        0.0210
     18 C          63.9792   83.4161   14.7933 C.3     1  UNL1        0.0722
     19 N          63.2696   83.2184   13.4866 N.3     1  UNL1       -0.2727
     20 C          62.9634   84.3990   12.6134 C.3     1  UNL1        0.0722
     21 C          63.3669   85.7773   13.0470 C.3     1  UNL1        0.0210
     22 C          63.4709   83.9926   13.6819 C.3     1  UNL1        0.0722
     23 C          63.8357   85.2388   14.0738 C.3     1  UNL1        0.0210
@<TRIPOS>BOND
     1     1     2    2
     2     2    14    1
     3    14    15    1
     4    15    16    1
     5    16    17    1
     6    17    18    1
     7    18    19    1
     8    19    20    1
     9    20    21    1
    10    19    22    1
    11    22    23    1
    12     2     3    1
    13     3     4    2
    14     4     5    1
    15     5     6    2
    16     6     7    1
    17     7     8    1
    18     8     9    2
    19     9    10    1
    20     9    11    1
    21    11    12    2
    22    21    16    1
    23    12     3    1
    24    23    16    1
    25    12     6    1
    26    10    13    1
@<TRIPOS>MOLECULE
*****
 23 26 0 0 0
SMALL
GASTEIGER

@<TRIPOS>ATOM
      1 O          62.7002   89.5818    9.9021 O.2     1  UNL1       -0.2448
      2 C          62.4545   89.4016   11.3708 C.2     1  UNL1        0.3428
      3 C          63.3934   90.0120   12.3688 C.2     1  UNL1        0.0959
      4 C          63.6166   89.5375   13.7741 C.2     1  UNL1        0.1049
      5 N          64.6350   90.4363   14.4105 N.2     1  UNL1       -0.2476
      6 C          65.0413   91.4662   13.3984 C.2     1  UNL1        0.0638
      7 C          66.0108   92.6089   13.4629 C.3     1  UNL1        0.0749
      8 C          66.2129   93.4894   12.2655 C.2     1  UNL1        0.0168
      9 C          65.4455   93.2272   11.0036 C.2     1  UNL1        0.1298
     10 O          65.6477   94.1077    9.8061 O.2     1  UNL1       -0.5058
     11 C          64.4760   92.0844   10.9391 C.2     1  UNL1        0.0377
     12 C          64.2739   91.2040   12.1366 C.2     1  UNL1        0.0246
     13 H          66.2533   94.8215    9.8464 H       1  UNL1        0.2922
     14 O          61.2698   88.6110   11.8415 O.3     1  UNL1       -0.4454
     15 C          60.7315   87.4929   10.9988 C.3     1  UNL1        0.2087
     16 C          61.6486   86.4080   10.5175 C.3     1  UNL1        0.0445
     17 C          62.1457   85.3662   11.4755 C.3     1  UNL1        0.0210
     18 C          63.0628   84.2813   10.9941 C.3     1  UNL1        0.0722
     19 N          63.4830   84.2380    9.5547 N.3     1  UNL1       -0.2727
     20 C          62.9859   85.2797    8.5968 C.3     1  UNL1        0.0722
     21 C          62.0687   86.3648    9.0781 C.3     1  UNL1        0.0210
     22 C          62.9789   84.8518    9.7720 C.3     1  UNL1        0.0722
     23 C          62.1496   85.8329   10.2071 C.3     1  UNL1        0.0210
@<TRIPOS>BOND
     1     1     2    2
     2     2    14    1
     3    14    15    1
     4    15    16    1
     5    16    17    1
     6    17    18    1
     7    18    19    1
     8    19    20    1
     9    20    21    1
    10    19    22    1
    11    22    23    1
    12     2     3    1
    13     3     4    2
    14     4     5    1
    15     5     6    2
    16     6     7    1
    17     7     8    1
    18     8     9    2
    19     9    10    1
    20     9    11    1
    21    11    12    2
    22    21    16    1
    23    12     3    1
    24    23    16    1
    25    12     6    1
    26    10    13    1
@<TRIPOS>MOLECULE
*****
 23 26 0 0 0
SMALL
GASTEIGER

@<TRIPOS>ATOM
      1 O          63.1960   90.6206   16.8327 O.2     1  UNL1       -0.2448
      2 C          63.6397   89.9165   15.5849 C.2     1  UNL1        0.3428
      3 C          64.2620   90.6962   14.4646 C.2     1  UNL1        0.0959
      4 C          65.5042   91.5320   14.5559 C.2     1  UNL1        0.1049
      5 N          65.7613   92.1292   13.2041 N.2     1  UNL1       -0.2476
      6 C          64.6780   91.6625   12.2775 C.2     1  UNL1        0.0638
      7 C          64.4156   91.9296   10.8250 C.3     1  UNL1        0.0749
      8 C          63.2266   91.3110   10.1516 C.2     1  UNL1        0.0168
      9 C          62.3000   90.4253   10.9306 C.2     1  UNL1        0.1298
     10 O          61.1109   89.8067   10.2571 O.2     1  UNL1       -0.5058
     11 C          62.5624   90.1582   12.3831 C.2     1  UNL1        0.0377
     12 C          63.7514   90.7768   13.0565 C.2     1  UNL1        0.0246
     13 H          60.9470   89.9736    9.3498 H       1  UNL1        0.2922
     14 O          63.4611   88.4326   15.4572 O.3     1  UNL1       -0.4454
     15 C          64.4330   87.6272   14.6469 C.3     1  UNL1        0.2087
     16 C          64.1171   86.2038   14.2945 C.3     1  UNL1        0.0445
     17 C          63.4014   85.8892   13.0143 C.3     1  UNL1        0.0210
     18 C          63.0855   84.4658   12.6620 C.3     1  UNL1        0.0722
     19 N          63.4852   83.3570   13.5898 N.3     1  UNL1       -0.2727
     20 C          64.2009   83.6716   14.8700 C.3     1  UNL1        0.0722
     21 C          64.5168   85.0951   15.2223 C.3     1  UNL1        0.0210
     22 C          63.6800   84.1215   13.8257 C.3     1  UNL1        0.0722
     23 C          63.9657   85.4085   14.1444 C.3     1  UNL1        0.0210
@<TRIPOS>BOND
     1     1     2    2
     2     2    14    1
     3    14    15    1
     4    15    16    1
     5    16    17    1
     6    17    18    1
     7    18    19    1
     8    19    20    1
     9    20    21    1
    10    19    22    1
    11    22    23    1
    12     2     3    1
    13     3     4    2
    14     4     5    1
    15     5     6    2
    16     6     7    1
    17     7     8    1
    18     8     9    2
    19     9    10    1
    20     9    11    1
    21    11    12    2
    22    21    16    1
    23    12     3    1
    24    23    16    1
    25    12     6    1
    26    10    13    1
@<TRIPOS>MOLECULE
*****
 23 26 0 0 0
SMALL
GASTEIGER

@<TRIPOS>ATOM
      1 O          60.3573   89.6221    9.6330 O.2     1  UNL1       -0.2448
      2 C          61.7625   89.1993    9.9437 C.2     1  UNL1        0.3428
      3 C          62.7097   90.1640   10.5935 C.2     1  UNL1        0.0959
      4 C          63.1657   91.4731   10.0205 C.2     1  UNL1        0.1049
      5 N          64.1050   92.1070   11.0032 N.2     1  UNL1       -0.2476
      6 C          64.2296   91.1897   12.1835 C.2     1  UNL1        0.0638
      7 C          65.0169   91.2928   13.4561 C.3     1  UNL1        0.0749
      8 C          64.9418   90.1949   14.4754 C.2     1  UNL1        0.0168
      9 C          64.0794   88.9940   14.2221 C.2     1  UNL1        0.1298
     10 O          64.0044   87.8961   15.2415 O.2     1  UNL1       -0.5058
     11 C          63.2922   88.8910   12.9495 C.2     1  UNL1        0.0377
     12 C          63.3673   89.9888   11.9302 C.2     1  UNL1        0.0246
     13 H          64.4962   87.9605   16.0365 H       1  UNL1        0.2922
     14 O          62.2205   87.8117    9.6046 O.3     1  UNL1       -0.4454
     15 C          61.5461   86.6259   10.2284 C.3     1  UNL1        0.2087
     16 C          62.3603   85.4449   10.6670 C.3     1  UNL1        0.0445
     17 C          62.4713   85.1102   12.1249 C.3     1  UNL1        0.0210
     18 C          63.2855   83.9292   12.5634 C.3     1  UNL1        0.0722
     19 N          63.9889   83.0829   11.5440 N.3     1  UNL1       -0.2727
     20 C          63.8779   83.4177   10.0861 C.3     1  UNL1        0.0722
     21 C          63.0636   84.5987    9.6475 C.3     1  UNL1        0.0210
     22 C          63.5542   83.7201   11.2557 C.3     1  UNL1        0.0722
     23 C          62.8180   84.7879   10.8591 C.3     1  UNL1        0.0210
@<TRIPOS>BOND
     1     1     2    2
     2     2    14    1
     3    14    15    1
     4    15    16    1
     5    16    17    1
     6    17    18    1
     7    18    19    1
     8    19    20    1
     9    20    21    1
    10    19    22    1
    11    22    23    1
    12     2     3    1
    13     3     4    2
    14     4     5    1
    15     5     6    2
    16     6     7    1
    17     7     8    1
    18     8     9    2
    19     9    10    1
    20     9    11    1
    21    11    12    2
    22    21    16    1
    23    12     3    1
    24    23    16    1
    25    12     6    1
    26    10    13    1
@<TRIPOS>MOLECULE
*****
 23 26 0 0 0
SMALL
GASTEIGER

@<TRIPOS>ATOM
      1 O          64.1129   88.2262   14.4663 O.2     1  UNL1       -0.2448
      2 C          63.7041   89.6581   14.2869 C.2     1  UNL1        0.3428
      3 C          64.3133   90.7255   15.1469 C.2     1  UNL1        0.0959
      4 C          63.6850   91.3464   16.3592 C.2     1  UNL1        0.1049
      5 N          64.6412   92.3640   16.9070 N.2     1  UNL1       -0.2476
      6 C          65.8605   92.3720   16.0333 C.2     1  UNL1        0.0638
      7 C          67.1290   93.1705   16.0878 C.3     1  UNL1        0.0749
      8 C          68.1949   92.9564   15.0544 C.2     1  UNL1        0.0168
      9 C          67.9923   91.9437   13.9665 C.2     1  UNL1        0.1298
     10 O          69.0583   91.7296   12.9331 O.2     1  UNL1       -0.5058
     11 C          66.7237   91.1452   13.9121 C.2     1  UNL1        0.0377
     12 C          65.6578   91.3593   14.9455 C.2     1  UNL1        0.0246
     13 H          69.8507   92.2285   12.9671 H       1  UNL1        0.2922
     14 O          62.6859   90.0227   13.2474 O.3     1  UNL1       -0.4454
     15 C          63.0106   89.8647   11.7915 C.3     1  UNL1        0.2087
     16 C          62.2087   88.9238   10.9421 C.3     1  UNL1        0.0445
     17 C          62.3007   87.4441   11.1699 C.3     1  UNL1        0.0210
     18 C          61.4987   86.5032   10.3205 C.3     1  UNL1        0.0722
     19 N          60.6048   87.0420    9.2431 N.3     1  UNL1       -0.2727
     20 C          60.5128   88.5217    9.0153 C.3     1  UNL1        0.0722
     21 C          61.3148   89.4627    9.8648 C.3     1  UNL1        0.0210
     22 C          61.0251   87.5967    9.6833 C.3     1  UNL1        0.0722
     23 C          61.7502   88.4475   10.4513 C.3     1  UNL1        0.0210
@<TRIPOS>BOND
     1     1     2    2
     2     2    14    1
     3    14    15    1
     4    15    16    1
     5    16    17    1
     6    17    18    1
     7    18    19    1
     8    19    20    1
     9    20    21    1
    10    19    22    1
    11    22    23    1
    12     2     3    1
    13     3     4    2
    14     4     5    1
    15     5     6    2
    16     6     7    1
    17     7     8    1
    18     8     9    2
    19     9    10    1
    20     9    11    1
    21    11    12    2
    22    21    16    1
    23    12     3    1
    24    23    16    1
    25    12     6    1
    26    10    13    1
