@<TRIPOS>MOLECULE
*****
 37 41 0 0 0
SMALL
GASTEIGER

@<TRIPOS>ATOM
      1 C          62.8380   89.0165   12.0110 C.ar    1  UNL1        0.1632
      2 N          61.8381   89.5928   11.0528 N.ar    1  UNL1       -0.2310
      3 C          61.1108   88.6940   10.0970 C.ar    1  UNL1        0.0621
      4 C          61.3834   87.2190   10.0995 C.ar    1  UNL1        0.0391
      5 C          62.3833   86.6427   11.0577 C.ar    1  UNL1        0.1318
      6 N          63.1106   87.5415   12.0135 N.ar    1  UNL1       -0.2122
      7 C          60.6561   86.3203    9.1438 C.3     1  UNL1        0.1052
      8 C          59.7374   85.8315    8.0635 C.3     1  UNL1        0.0238
      9 C          59.0028   87.0158    7.5089 C.3     1  UNL1        0.0199
     10 C          59.4674   88.2366    8.2464 C.3     1  UNL1        0.0855
     11 C          60.1109   89.2703    9.1388 C.3     1  UNL1        0.0633
     12 N          60.4893   87.8067    9.2569 N.3     1  UNL1       -0.1575
     13 N          62.6559   85.1677   11.0603 N.pl3   1  UNL1       -0.2900
     14 C          62.3838   84.3568   12.2925 C.3     1  UNL1        0.1242
     15 C          62.6564   82.8818   12.2950 C.3     1  UNL1        0.1636
     16 O          63.2011   82.2177   11.0653 O.3     1  UNL1       -0.3502
     17 C          63.4732   83.0285    9.8330 C.3     1  UNL1        0.1618
     18 C          63.2006   84.5036    9.8305 C.3     1  UNL1        0.1038
     19 C          63.4727   85.3144    8.5983 C.3     1  UNL1        0.0241
     20 C          65.0198   91.7129   14.8779 C.ar    1  UNL1        0.0516
     21 C          65.0156   92.0246   13.4106 C.ar    1  UNL1        0.0148
     22 C          64.2883   91.1258   12.4550 C.ar    1  UNL1        0.0043
     23 C          63.5652   89.9152   12.9666 C.ar    1  UNL1        0.0359
     24 C          63.5694   89.6035   14.4338 C.ar    1  UNL1        0.0043
     25 C          64.2966   90.5023   15.3894 C.ar    1  UNL1        0.0148
     26 N          67.8198   94.0631   16.4227 N.am    1  UNL1       -0.2887
     27 C          67.0926   93.1643   15.4671 C.2     1  UNL1        0.3045
     28 O          67.7108   92.8181   14.1450 O.2     1  UNL1       -0.2525
     29 N          65.7471   92.6117   15.8335 N.am    1  UNL1       -0.2683
     30 H          67.4140   94.2903   17.2904 H       1  UNL1        0.1510
     31 H          65.3413   92.8389   16.7013 H       1  UNL1        0.1564
     32 C          70.2973   93.6843   15.7384 C.3     1  UNL1        0.0230
     33 C          69.1653   94.6157   16.0562 C.3     1  UNL1        0.0910
     34 S          61.2165   88.7054   10.2126 S.O2    1  UNL1        0.0459
     35 C          61.6328   89.5788   11.3588 C.3     1  UNL1        0.1960
     36 O          60.0202   88.7114   11.1174 O.2     1  UNL1       -0.1572
     37 O          62.4129   88.6994    9.3078 O.2     1  UNL1       -0.1572
@<TRIPOS>BOND
     1    32    33    1
     2    33    26    1
     3    26    27   am
     4    27    28    2
     5    27    29   am
     6    29    20    1
     7    20    21   ar
     8    21    22   ar
     9    22    23   ar
    10    23     1    1
    11     1     2   ar
    12     2     3   ar
    13     3     4   ar
    14     4     5   ar
    15     5    13    1
    16    13    14    1
    17    14    15    1
    18    15    16    1
    19    16    17    1
    20    17    18    1
    21    18    19    1
    22     5     6   ar
    23     4     7    1
    24     7     8    1
    25     8     9    1
    26    10     9    1
    27    10    11    1
    28    10    12    1
    29    12    34    1
    30    34    35    1
    31    34    36    2
    32    34    37    2
    33    23    24   ar
    34    24    25   ar
    35    25    20   ar
    36     6     1   ar
    37    12     7    1
    38    11     3    1
    39    18    13    1
    40    26    30    1
    41    29    31    1
@<TRIPOS>MOLECULE
*****
 37 41 0 0 0
SMALL
GASTEIGER

@<TRIPOS>ATOM
      1 C          58.8448   94.4303   -0.7357 C.ar    1  UNL1        0.1632
      2 N          59.0532   93.7948    0.6070 N.ar    1  UNL1       -0.2310
      3 C          60.4338   93.4066    1.0469 C.ar    1  UNL1        0.0621
      4 C          61.6059   93.6539    0.1442 C.ar    1  UNL1        0.0391
      5 C          61.3975   94.2894   -1.1985 C.ar    1  UNL1        0.1318
      6 N          60.0170   94.6776   -1.6384 N.ar    1  UNL1       -0.2122
      7 C          62.9864   93.2657    0.5841 C.3     1  UNL1        0.1052
      8 C          64.1274   92.7391    1.4031 C.3     1  UNL1        0.0238
      9 C          63.5710   92.2294    2.6994 C.3     1  UNL1        0.0199
     10 C          62.0861   92.4410    2.6817 C.3     1  UNL1        0.0855
     11 C          60.6422   92.7711    2.3896 C.3     1  UNL1        0.0633
     12 N          61.7248   93.0815    1.3743 N.3     1  UNL1       -0.1575
     13 N          62.5697   94.5367   -2.1012 N.pl3   1  UNL1       -0.2900
     14 C          62.9699   93.5024   -3.1111 C.3     1  UNL1        0.1242
     15 C          64.1420   93.7497   -4.0138 C.3     1  UNL1        0.1636
     16 O          64.9139   95.0314   -3.9067 O.3     1  UNL1       -0.3502
     17 C          64.5137   96.0658   -2.8968 C.3     1  UNL1        0.1618
     18 C          63.3415   95.8185   -1.9941 C.3     1  UNL1        0.1038
     19 C          62.9413   96.8528   -0.9842 C.3     1  UNL1        0.0241
     20 C          54.7033   95.5948   -2.0553 C.ar    1  UNL1        0.0516
     21 C          55.7136   96.6555   -1.7322 C.ar    1  UNL1        0.0148
     22 C          57.0941   96.2673   -1.2923 C.ar    1  UNL1        0.0043
     23 C          57.4644   94.8184   -1.1755 C.ar    1  UNL1        0.0359
     24 C          56.4542   93.7577   -1.4987 C.ar    1  UNL1        0.0043
     25 C          55.0737   94.1460   -1.9385 C.ar    1  UNL1        0.0148
     26 N          51.6098   96.4308   -4.3964 N.am    1  UNL1       -0.2887
     27 C          52.9902   96.0426   -3.9566 C.2     1  UNL1        0.3045
     28 O          54.0382   95.7138   -4.9783 O.2     1  UNL1       -0.2525
     29 N          53.3228   95.9831   -2.4952 N.am    1  UNL1       -0.2683
     30 H          50.9220   96.6465   -3.7259 H       1  UNL1        0.1510
     31 H          52.6350   96.1988   -1.8246 H       1  UNL1        0.1564
     32 C          50.0274   95.8378   -6.3698 C.3     1  UNL1        0.0230
     33 C          51.2772   96.4903   -5.8579 C.3     1  UNL1        0.0910
     34 S          60.3443   93.4697    0.9344 S.O2    1  UNL1        0.0459
     35 C          59.0363   94.1607    0.6862 C.3     1  UNL1        0.1960
     36 O          60.4742   94.7688    1.6730 O.2     1  UNL1       -0.1572
     37 O          60.2144   92.1707    0.1958 O.2     1  UNL1       -0.1572
@<TRIPOS>BOND
     1    32    33    1
     2    33    26    1
     3    26    27   am
     4    27    28    2
     5    27    29   am
     6    29    20    1
     7    20    21   ar
     8    21    22   ar
     9    22    23   ar
    10    23     1    1
    11     1     2   ar
    12     2     3   ar
    13     3     4   ar
    14     4     5   ar
    15     5    13    1
    16    13    14    1
    17    14    15    1
    18    15    16    1
    19    16    17    1
    20    17    18    1
    21    18    19    1
    22     5     6   ar
    23     4     7    1
    24     7     8    1
    25     8     9    1
    26    10     9    1
    27    10    11    1
    28    10    12    1
    29    12    34    1
    30    34    35    1
    31    34    36    2
    32    34    37    2
    33    23    24   ar
    34    24    25   ar
    35    25    20   ar
    36     6     1   ar
    37    12     7    1
    38    11     3    1
    39    18    13    1
    40    26    30    1
    41    29    31    1
@<TRIPOS>MOLECULE
*****
 37 41 0 0 0
SMALL
GASTEIGER

@<TRIPOS>ATOM
      1 C          64.1055   90.9749   11.8130 C.ar    1  UNL1        0.1632
      2 N          64.4735   90.6823   13.2374 N.ar    1  UNL1       -0.2310
      3 C          65.4193   91.5881   13.9689 C.ar    1  UNL1        0.0621
      4 C          65.9971   92.7864   13.2760 C.ar    1  UNL1        0.0391
      5 C          65.6291   93.0790   11.8516 C.ar    1  UNL1        0.1318
      6 N          64.6833   92.1732   11.1201 N.ar    1  UNL1       -0.2122
      7 C          66.9429   93.6921   14.0075 C.3     1  UNL1        0.1052
      8 C          67.8049   94.2876   15.0809 C.3     1  UNL1        0.0238
      9 C          67.6838   93.4268   16.3034 C.3     1  UNL1        0.0199
     10 C          66.7469   92.2994   15.9855 C.3     1  UNL1        0.0855
     11 C          65.7873   91.2955   15.3934 C.3     1  UNL1        0.0633
     12 N          66.2889   92.4634   14.5665 N.3     1  UNL1       -0.1575
     13 N          66.2069   94.2773   11.1586 N.pl3   1  UNL1       -0.2900
     14 C          65.7737   95.6564   11.5590 C.3     1  UNL1        0.1242
     15 C          66.3514   96.8548   10.8661 C.3     1  UNL1        0.1636
     16 O          67.3625   96.6739    9.7728 O.3     1  UNL1       -0.3502
     17 C          67.7957   95.2948    9.3725 C.3     1  UNL1        0.1618
     18 C          67.2179   94.0965   10.0654 C.3     1  UNL1        0.1038
     19 C          67.6511   92.7173    9.6651 C.3     1  UNL1        0.0241
     20 C          61.2681   88.2576    9.6185 C.ar    1  UNL1        0.0516
     21 C          61.4146   89.6891    9.1947 C.ar    1  UNL1        0.0148
     22 C          62.3604   90.5948    9.9262 C.ar    1  UNL1        0.0043
     23 C          63.1597   90.0691   11.0816 C.ar    1  UNL1        0.0359
     24 C          63.0132   88.6377   11.5054 C.ar    1  UNL1        0.0043
     25 C          62.0674   87.7320   10.7739 C.ar    1  UNL1        0.0148
     26 N          59.9107   85.3193    7.3221 N.am    1  UNL1       -0.2887
     27 C          60.8565   86.2249    8.0536 C.2     1  UNL1        0.3045
     28 O          62.3366   86.0037    7.9516 O.2     1  UNL1       -0.2525
     29 N          60.3223   87.3519    8.8870 N.am    1  UNL1       -0.2683
     30 H          58.9392   85.4645    7.3891 H       1  UNL1        0.1510
     31 H          59.3508   87.4970    8.9539 H       1  UNL1        0.1564
     32 C          61.6772   84.3931    5.6572 C.3     1  UNL1        0.0230
     33 C          60.4449   84.1924    6.4887 C.3     1  UNL1        0.0910
     34 S          65.3432   91.5576   13.8350 S.O2    1  UNL1        0.0459
     35 C          64.1495   90.8074   13.3228 C.3     1  UNL1        0.1960
     36 O          64.2027   92.0889   14.6517 O.2     1  UNL1       -0.1572
     37 O          66.4836   91.0263   13.0183 O.2     1  UNL1       -0.1572
@<TRIPOS>BOND
     1    32    33    1
     2    33    26    1
     3    26    27   am
     4    27    28    2
     5    27    29   am
     6    29    20    1
     7    20    21   ar
     8    21    22   ar
     9    22    23   ar
    10    23     1    1
    11     1     2   ar
    12     2     3   ar
    13     3     4   ar
    14     4     5   ar
    15     5    13    1
    16    13    14    1
    17    14    15    1
    18    15    16    1
    19    16    17    1
    20    17    18    1
    21    18    19    1
    22     5     6   ar
    23     4     7    1
    24     7     8    1
    25     8     9    1
    26    10     9    1
    27    10    11    1
    28    10    12    1
    29    12    34    1
    30    34    35    1
    31    34    36    2
    32    34    37    2
    33    23    24   ar
    34    24    25   ar
    35    25    20   ar
    36     6     1   ar
    37    12     7    1
    38    11     3    1
    39    18    13    1
    40    26    30    1
    41    29    31    1
@<TRIPOS>MOLECULE
*****
 37 41 0 0 0
SMALL
GASTEIGER

@<TRIPOS>ATOM
      1 C          63.6795   87.0989   13.4703 C.ar    1  UNL1        0.1632
      2 N          63.7282   85.8756   14.3369 N.ar    1  UNL1       -0.2310
      3 C          63.3018   84.5477   13.7845 C.ar    1  UNL1        0.0621
      4 C          62.8267   84.4432   12.3656 C.ar    1  UNL1        0.0391
      5 C          62.7780   85.6666   11.4990 C.ar    1  UNL1        0.1318
      6 N          63.2044   86.9945   12.0514 N.ar    1  UNL1       -0.2122
      7 C          62.4003   83.1154   11.8133 C.3     1  UNL1        0.1052
      8 C          62.0882   81.6530   11.6958 C.3     1  UNL1        0.0238
      9 C          62.3906   81.0070   13.0153 C.3     1  UNL1        0.0199
     10 C          62.8896   82.0702   13.9484 C.3     1  UNL1        0.0855
     11 C          63.3505   83.3243   14.6511 C.3     1  UNL1        0.0633
     12 N          62.8956   83.3733   13.2055 N.3     1  UNL1       -0.1575
     13 N          62.3029   85.5621   10.0801 N.pl3   1  UNL1       -0.2900
     14 C          63.0865   84.7599    9.0839 C.3     1  UNL1        0.1242
     15 C          62.6114   84.6554    7.6650 C.3     1  UNL1        0.1636
     16 O          61.3527   85.3532    7.2422 O.3     1  UNL1       -0.3502
     17 C          60.5691   86.1555    8.2384 C.3     1  UNL1        0.1618
     18 C          61.0442   86.2600    9.6573 C.3     1  UNL1        0.1038
     19 C          60.2606   87.0623   10.6534 C.3     1  UNL1        0.0241
     20 C          64.9588   91.0823   15.1275 C.ar    1  UNL1        0.0516
     21 C          64.4666   90.0084   16.0520 C.ar    1  UNL1        0.0148
     22 C          64.0402   88.6806   15.4995 C.ar    1  UNL1        0.0043
     23 C          64.1059   88.4267   14.0226 C.ar    1  UNL1        0.0359
     24 C          64.5981   89.5005   13.0981 C.ar    1  UNL1        0.0043
     25 C          65.0245   90.8283   13.6506 C.ar    1  UNL1        0.0148
     26 N          67.2521   94.1504   16.1652 N.am    1  UNL1       -0.2887
     27 C          66.8258   92.8227   15.6128 C.2     1  UNL1        0.3045
     28 O          67.8400   91.9075   14.9932 O.2     1  UNL1       -0.2525
     29 N          65.3852   92.4101   15.6799 N.am    1  UNL1       -0.2683
     30 H          66.5864   94.7511   16.5719 H       1  UNL1        0.1510
     31 H          64.7195   93.0107   16.0865 H       1  UNL1        0.1564
     32 C          69.7706   93.5205   16.0631 C.3     1  UNL1        0.0230
     33 C          68.6927   94.5630   16.0981 C.3     1  UNL1        0.0910
     34 S          63.3220   84.7011   13.7578 S.O2    1  UNL1        0.0459
     35 C          64.0811   85.9119   14.2134 C.3     1  UNL1        0.1960
     36 O          64.7493   84.3807   13.4262 O.2     1  UNL1       -0.1572
     37 O          61.8946   85.0216   14.0894 O.2     1  UNL1       -0.1572
@<TRIPOS>BOND
     1    32    33    1
     2    33    26    1
     3    26    27   am
     4    27    28    2
     5    27    29   am
     6    29    20    1
     7    20    21   ar
     8    21    22   ar
     9    22    23   ar
    10    23     1    1
    11     1     2   ar
    12     2     3   ar
    13     3     4   ar
    14     4     5   ar
    15     5    13    1
    16    13    14    1
    17    14    15    1
    18    15    16    1
    19    16    17    1
    20    17    18    1
    21    18    19    1
    22     5     6   ar
    23     4     7    1
    24     7     8    1
    25     8     9    1
    26    10     9    1
    27    10    11    1
    28    10    12    1
    29    12    34    1
    30    34    35    1
    31    34    36    2
    32    34    37    2
    33    23    24   ar
    34    24    25   ar
    35    25    20   ar
    36     6     1   ar
    37    12     7    1
    38    11     3    1
    39    18    13    1
    40    26    30    1
    41    29    31    1
@<TRIPOS>MOLECULE
*****
 37 41 0 0 0
SMALL
GASTEIGER

@<TRIPOS>ATOM
      1 C          58.7586   94.6868   -1.5783 C.ar    1  UNL1        0.1632
      2 N          58.6050   93.9219   -0.2972 N.ar    1  UNL1       -0.2310
      3 C          59.8154   93.5692    0.5156 C.ar    1  UNL1        0.0621
      4 C          61.1795   93.9814    0.0472 C.ar    1  UNL1        0.0391
      5 C          61.3331   94.7463   -1.2339 C.ar    1  UNL1        0.1318
      6 N          60.1227   95.0990   -2.0467 N.ar    1  UNL1       -0.2122
      7 C          62.3898   93.6288    0.8600 C.3     1  UNL1        0.1052
      8 C          63.2702   93.0834    1.9451 C.3     1  UNL1        0.0238
      9 C          62.3940   92.4037    2.9552 C.3     1  UNL1        0.0199
     10 C          60.9720   92.5291    2.4943 C.3     1  UNL1        0.0855
     11 C          59.6617   92.8043    1.7968 C.3     1  UNL1        0.0633
     12 N          60.9695   93.2862    1.1994 N.3     1  UNL1       -0.1575
     13 N          62.6972   95.1586   -1.7023 N.pl3   1  UNL1       -0.2900
     14 C          63.4483   96.2321   -0.9719 C.3     1  UNL1        0.1242
     15 C          64.8123   96.6443   -1.4402 C.3     1  UNL1        0.1636
     16 O          65.4253   95.9831   -2.6390 O.3     1  UNL1       -0.3502
     17 C          64.6742   94.9096   -3.3694 C.3     1  UNL1        0.1618
     18 C          63.3102   94.4973   -2.9011 C.3     1  UNL1        0.1038
     19 C          62.5591   93.4239   -3.6315 C.3     1  UNL1        0.0241
     20 C          55.1274   95.7446   -4.0165 C.ar    1  UNL1        0.0516
     21 C          55.8393   94.4461   -4.2558 C.ar    1  UNL1        0.0148
     22 C          57.0497   94.0935   -3.4430 C.ar    1  UNL1        0.0043
     23 C          57.5483   95.0394   -2.3910 C.ar    1  UNL1        0.0359
     24 C          56.8364   96.3378   -2.1517 C.ar    1  UNL1        0.0043
     25 C          55.6260   96.6904   -2.9645 C.ar    1  UNL1        0.0148
     26 N          51.3796   96.6377   -4.9685 N.am    1  UNL1       -0.2887
     27 C          52.5899   96.2852   -4.1557 C.2     1  UNL1        0.3045
     28 O          52.4733   96.1206   -2.6693 O.2     1  UNL1       -0.2525
     29 N          53.9170   96.0972   -4.8293 N.am    1  UNL1       -0.2683
     30 H          51.4562   96.7457   -5.9440 H       1  UNL1        0.1510
     31 H          53.9935   96.2052   -5.8048 H       1  UNL1        0.1564
     32 C          48.7945   96.8541   -5.1112 C.3     1  UNL1        0.0230
     33 C          50.0526   96.8257   -4.2949 C.3     1  UNL1        0.0910
     34 S          59.7591   93.6389    0.3867 S.O2    1  UNL1        0.0459
     35 C          58.5935   93.6532   -0.5573 C.3     1  UNL1        0.1960
     36 O          59.7954   92.2838   -0.2554 O.2     1  UNL1       -0.1572
     37 O          59.7228   94.9940    1.0288 O.2     1  UNL1       -0.1572
@<TRIPOS>BOND
     1    32    33    1
     2    33    26    1
     3    26    27   am
     4    27    28    2
     5    27    29   am
     6    29    20    1
     7    20    21   ar
     8    21    22   ar
     9    22    23   ar
    10    23     1    1
    11     1     2   ar
    12     2     3   ar
    13     3     4   ar
    14     4     5   ar
    15     5    13    1
    16    13    14    1
    17    14    15    1
    18    15    16    1
    19    16    17    1
    20    17    18    1
    21    18    19    1
    22     5     6   ar
    23     4     7    1
    24     7     8    1
    25     8     9    1
    26    10     9    1
    27    10    11    1
    28    10    12    1
    29    12    34    1
    30    34    35    1
    31    34    36    2
    32    34    37    2
    33    23    24   ar
    34    24    25   ar
    35    25    20   ar
    36     6     1   ar
    37    12     7    1
    38    11     3    1
    39    18    13    1
    40    26    30    1
    41    29    31    1
@<TRIPOS>MOLECULE
*****
 37 41 0 0 0
SMALL
GASTEIGER

@<TRIPOS>ATOM
      1 C          59.5550   94.4218   -3.0462 C.ar    1  UNL1        0.1632
      2 N          59.6372   94.3835   -1.5489 N.ar    1  UNL1       -0.2310
      3 C          60.9604   94.1689   -0.8756 C.ar    1  UNL1        0.0621
      4 C          62.2013   93.9926   -1.6995 C.ar    1  UNL1        0.0391
      5 C          62.1192   94.0309   -3.1968 C.ar    1  UNL1        0.1318
      6 N          60.7960   94.2455   -3.8701 N.ar    1  UNL1       -0.2122
      7 C          63.5244   93.7781   -1.0262 C.3     1  UNL1        0.1052
      8 C          64.5760   93.5986    0.0283 C.3     1  UNL1        0.0238
      9 C          63.9069   93.6783    1.3684 C.3     1  UNL1        0.0199
     10 C          62.4418   93.9070    1.1422 C.3     1  UNL1        0.0855
     11 C          61.0425   94.1306    0.6217 C.3     1  UNL1        0.0633
     12 N          62.2054   93.9686   -0.3378 N.3     1  UNL1       -0.1575
     13 N          63.3601   93.8546   -4.0207 N.pl3   1  UNL1       -0.2900
     14 C          63.8491   92.4765   -4.3547 C.3     1  UNL1        0.1242
     15 C          65.0901   92.3002   -5.1787 C.3     1  UNL1        0.1636
     16 O          65.8421   93.5021   -5.6686 O.3     1  UNL1       -0.3502
     17 C          65.3531   94.8802   -5.3346 C.3     1  UNL1        0.1618
     18 C          64.1121   95.0565   -4.5107 C.3     1  UNL1        0.1038
     19 C          63.6232   96.4347   -4.1767 C.3     1  UNL1        0.0241
     20 C          55.5856   95.0654   -5.0660 C.ar    1  UNL1        0.0516
     21 C          55.9900   93.6888   -4.6282 C.ar    1  UNL1        0.0148
     22 C          57.3132   93.4743   -3.9550 C.ar    1  UNL1        0.0043
     23 C          58.2320   94.6363   -3.7194 C.ar    1  UNL1        0.0359
     24 C          57.8276   96.0129   -4.1571 C.ar    1  UNL1        0.0043
     25 C          56.5045   96.2274   -4.8304 C.ar    1  UNL1        0.0148
     26 N          51.8175   96.1556   -5.6681 N.am    1  UNL1       -0.2887
     27 C          53.1406   95.9411   -4.9948 C.2     1  UNL1        0.3045
     28 O          53.3419   96.3879   -3.5771 O.2     1  UNL1       -0.2525
     29 N          54.2625   95.2799   -5.7392 N.am    1  UNL1       -0.2683
     30 H          51.6855   95.8623   -6.5986 H       1  UNL1        0.1510
     31 H          54.1304   94.9866   -6.6697 H       1  UNL1        0.1564
     32 C          49.2758   96.5901   -5.3508 C.3     1  UNL1        0.0230
     33 C          50.6957   96.8168   -4.9236 C.3     1  UNL1        0.0910
     34 S          60.8823   94.1832   -1.0111 S.O2    1  UNL1        0.0459
     35 C          59.5244   94.0377   -1.6314 C.3     1  UNL1        0.1960
     36 O          60.5757   92.7212   -0.8745 O.2     1  UNL1       -0.1572
     37 O          61.1889   95.6452   -1.1477 O.2     1  UNL1       -0.1572
@<TRIPOS>BOND
     1    32    33    1
     2    33    26    1
     3    26    27   am
     4    27    28    2
     5    27    29   am
     6    29    20    1
     7    20    21   ar
     8    21    22   ar
     9    22    23   ar
    10    23     1    1
    11     1     2   ar
    12     2     3   ar
    13     3     4   ar
    14     4     5   ar
    15     5    13    1
    16    13    14    1
    17    14    15    1
    18    15    16    1
    19    16    17    1
    20    17    18    1
    21    18    19    1
    22     5     6   ar
    23     4     7    1
    24     7     8    1
    25     8     9    1
    26    10     9    1
    27    10    11    1
    28    10    12    1
    29    12    34    1
    30    34    35    1
    31    34    36    2
    32    34    37    2
    33    23    24   ar
    34    24    25   ar
    35    25    20   ar
    36     6     1   ar
    37    12     7    1
    38    11     3    1
    39    18    13    1
    40    26    30    1
    41    29    31    1
