@<TRIPOS>MOLECULE
*****
 39 44 0 0 0
SMALL
GASTEIGER

@<TRIPOS>ATOM
      1 O          61.9817   86.3645   18.0702 O.2     1  UNL1       -0.2749
      2 C          62.7217   86.2625   16.7695 C.2     1  UNL1        0.2252
      3 N          63.3058   87.4926   16.1405 N.am    1  UNL1       -0.2794
      4 C          63.1498   88.8247   16.8122 C.3     1  UNL1        0.0953
      5 C          63.7339   90.0548   16.1831 C.3     1  UNL1        0.0442
      6 C          64.4739   89.9528   14.8823 C.3     1  UNL1        0.0933
      7 C          64.6299   88.6207   14.2107 C.3     1  UNL1        0.0442
      8 C          64.0458   87.3906   14.8397 C.3     1  UNL1        0.0953
      9 N          65.0580   91.1829   14.2533 N.ar    1  UNL1       -0.2817
     10 C          64.6686   91.7645   12.9266 C.ar    1  UNL1        0.3317
     11 O          63.6268   91.2181   11.9960 O.2     1  UNL1       -0.2463
     12 N          65.5040   92.9884   12.6939 N.ar    1  UNL1       -0.2757
     13 C          66.4097   93.1633   13.8768 C.ar    1  UNL1        0.0800
     14 C          67.4497   94.1944   14.2009 C.ar    1  UNL1        0.0188
     15 C          68.2141   94.1097   15.4887 C.ar    1  UNL1        0.0016
     16 C          67.9384   92.9938   16.4524 C.ar    1  UNL1        0.0016
     17 C          66.8984   91.9627   16.1284 C.ar    1  UNL1        0.0188
     18 C          66.1340   92.0474   14.8406 C.ar    1  UNL1        0.0796
     19 C          65.4443   93.8809   11.4898 C.3     1  UNL1        0.1381
     20 C          66.4704   93.7452   10.4040 C.ar    1  UNL1        0.0111
     21 C          67.2777   92.4863   10.2881 C.ar    1  UNL1       -0.0016
     22 C          68.3038   92.3506    9.2024 C.ar    1  UNL1       -0.0002
     23 C          68.5225   93.4739    8.2326 C.ar    1  UNL1        0.0008
     24 C          67.7152   94.7327    8.3485 C.ar    1  UNL1        0.0111
     25 C          66.6891   94.8684    9.4342 C.ar    1  UNL1        0.0555
     26 CL         65.8818   96.1273    9.5501 Cl      1  UNL1       -0.0825
     27 C          62.8776   84.9304   16.0978 C.3     1  UNL1        0.0795
     28 C          61.6729   84.2148   15.5625 C.3     1  UNL1        0.0264
     29 C          61.8289   82.8827   14.8908 C.3     1  UNL1        0.0729
     30 N          63.1896   82.2662   14.7544 N.3     1  UNL1       -0.2689
     31 C          64.3943   82.9819   15.2897 C.3     1  UNL1        0.0729
     32 C          64.2384   84.3140   15.9614 C.3     1  UNL1        0.0264
     33 C          63.3455   80.9341   14.0827 C.3     1  UNL1        0.0992
     34 C          63.2844   80.8365   12.5872 C.ar    1  UNL1       -0.0031
     35 C          63.7421   81.9875   11.7411 C.ar    1  UNL1        0.0178
     36 C          63.6810   81.8899   10.2456 C.ar    1  UNL1        0.0986
     37 N          63.1621   80.6414    9.5960 N.ar    1  UNL1       -0.2423
     38 C          62.7043   79.4904   10.4420 C.ar    1  UNL1        0.0986
     39 C          62.7654   79.5880   11.9376 C.ar    1  UNL1        0.0178
@<TRIPOS>BOND
     1     1     2    2
     2     2    27    1
     3    27    28    1
     4    28    29    1
     5    29    30    1
     6    30    33    1
     7    33    34    1
     8    34    35   ar
     9    35    36   ar
    10    36    37   ar
    11    37    38   ar
    12    38    39   ar
    13    30    31    1
    14    31    32    1
    15     2     3   am
    16     3     4    1
    17     4     5    1
    18     5     6    1
    19     6     9    1
    20     9    10   ar
    21    10    11    2
    22    10    12   ar
    23    12    19    1
    24    19    20    1
    25    20    21   ar
    26    21    22   ar
    27    22    23   ar
    28    23    24   ar
    29    24    25   ar
    30    25    26    1
    31    12    13   ar
    32    13    14   ar
    33    14    15   ar
    34    15    16   ar
    35    16    17   ar
    36    17    18   ar
    37     6     7    1
    38     7     8    1
    39    32    27    1
    40     8     3    1
    41    39    34   ar
    42    18     9   ar
    43    25    20   ar
    44    18    13   ar
@<TRIPOS>MOLECULE
*****
 39 44 0 0 0
SMALL
GASTEIGER

@<TRIPOS>ATOM
      1 O          58.2721   87.4111    7.0227 O.2     1  UNL1       -0.2749
      2 C          59.2090   88.5513    7.2910 C.2     1  UNL1        0.2252
      3 N          60.0745   88.5384    8.5161 N.am    1  UNL1       -0.2794
      4 C          60.0029   87.3854    9.4728 C.3     1  UNL1        0.0953
      5 C          60.8684   87.3725   10.6979 C.3     1  UNL1        0.0442
      6 C          61.8054   88.5127   10.9662 C.3     1  UNL1        0.0933
      7 C          61.8769   89.6657   10.0095 C.3     1  UNL1        0.0442
      8 C          61.0115   89.6786    8.7844 C.3     1  UNL1        0.0953
      9 N          62.6709   88.4999   12.1913 N.ar    1  UNL1       -0.2817
     10 C          63.1170   89.7029   12.9683 C.ar    1  UNL1        0.3317
     11 O          62.7761   91.1300   12.6567 O.2     1  UNL1       -0.2463
     12 N          63.9640   89.2282   14.1117 N.ar    1  UNL1       -0.2757
     13 C          64.0413   87.7318   14.0414 C.ar    1  UNL1        0.0800
     14 C          64.7361   86.7210   14.9047 C.ar    1  UNL1        0.0188
     15 C          64.6318   85.2601   14.5811 C.ar    1  UNL1        0.0016
     16 C          63.8326   84.8099   13.3943 C.ar    1  UNL1        0.0016
     17 C          63.1377   85.8207   12.5309 C.ar    1  UNL1        0.0188
     18 C          63.2421   87.2817   12.8545 C.ar    1  UNL1        0.0796
     19 C          64.6187   90.0972   15.1442 C.3     1  UNL1        0.1381
     20 C          65.5018   91.2325   14.7182 C.ar    1  UNL1        0.0111
     21 C          66.1077   91.2373   13.3461 C.ar    1  UNL1       -0.0016
     22 C          66.9908   92.3725   12.9201 C.ar    1  UNL1       -0.0002
     23 C          67.2679   93.5029   13.8663 C.ar    1  UNL1        0.0008
     24 C          66.6620   93.4981   15.2384 C.ar    1  UNL1        0.0111
     25 C          65.7790   92.3630   15.6645 C.ar    1  UNL1        0.0555
     26 CL         65.1730   92.3582   17.0366 Cl      1  UNL1       -0.0825
     27 C          59.2806   89.7043    6.3342 C.3     1  UNL1        0.0795
     28 C          58.0340   90.4548    5.9696 C.3     1  UNL1        0.0264
     29 C          58.1056   91.6078    5.0129 C.3     1  UNL1        0.0729
     30 N          59.4237   92.0104    4.4208 N.3     1  UNL1       -0.2689
     31 C          60.6703   91.2599    4.7854 C.3     1  UNL1        0.0729
     32 C          60.5987   90.1069    5.7422 C.3     1  UNL1        0.0264
     33 C          59.4952   93.1635    3.4640 C.3     1  UNL1        0.0992
     34 C          60.1934   93.0025    2.1463 C.ar    1  UNL1       -0.0031
     35 C          59.3985   92.7205    0.9059 C.ar    1  UNL1        0.0178
     36 C          60.0966   92.5595   -0.4119 C.ar    1  UNL1        0.0986
     37 N          61.5897   92.6805   -0.4893 N.ar    1  UNL1       -0.2423
     38 C          62.3847   92.9625    0.7510 C.ar    1  UNL1        0.0986
     39 C          61.6865   93.1235    2.0689 C.ar    1  UNL1        0.0178
@<TRIPOS>BOND
     1     1     2    2
     2     2    27    1
     3    27    28    1
     4    28    29    1
     5    29    30    1
     6    30    33    1
     7    33    34    1
     8    34    35   ar
     9    35    36   ar
    10    36    37   ar
    11    37    38   ar
    12    38    39   ar
    13    30    31    1
    14    31    32    1
    15     2     3   am
    16     3     4    1
    17     4     5    1
    18     5     6    1
    19     6     9    1
    20     9    10   ar
    21    10    11    2
    22    10    12   ar
    23    12    19    1
    24    19    20    1
    25    20    21   ar
    26    21    22   ar
    27    22    23   ar
    28    23    24   ar
    29    24    25   ar
    30    25    26    1
    31    12    13   ar
    32    13    14   ar
    33    14    15   ar
    34    15    16   ar
    35    16    17   ar
    36    17    18   ar
    37     6     7    1
    38     7     8    1
    39    32    27    1
    40     8     3    1
    41    39    34   ar
    42    18     9   ar
    43    25    20   ar
    44    18    13   ar
@<TRIPOS>MOLECULE
*****
 39 44 0 0 0
SMALL
GASTEIGER

@<TRIPOS>ATOM
      1 O          56.8371   90.0731    6.2669 O.2     1  UNL1       -0.2749
      2 C          58.3353   90.0897    6.3373 C.2     1  UNL1        0.2252
      3 N          59.1249   90.8679    5.3269 N.am    1  UNL1       -0.2794
      4 C          58.4163   91.6293    4.2461 C.3     1  UNL1        0.0953
      5 C          59.2059   92.4074    3.2356 C.3     1  UNL1        0.0442
      6 C          60.7043   92.4241    3.3059 C.3     1  UNL1        0.0933
      7 C          61.4128   91.6627    4.3867 C.3     1  UNL1        0.0442
      8 C          60.6232   90.8846    5.3972 C.3     1  UNL1        0.0953
      9 N          61.4939   93.2022    2.2955 N.ar    1  UNL1       -0.2817
     10 C          62.8880   92.8919    1.8372 C.ar    1  UNL1        0.3317
     11 O          63.7374   91.7490    2.3088 O.2     1  UNL1       -0.2463
     12 N          63.2837   93.9251    0.8243 N.ar    1  UNL1       -0.2757
     13 C          62.1341   94.8740    0.6567 C.ar    1  UNL1        0.0800
     14 C          61.9517   96.0871   -0.2064 C.ar    1  UNL1        0.0188
     15 C          60.6631   96.8535   -0.1603 C.ar    1  UNL1        0.0016
     16 C          59.5569   96.4066    0.7489 C.ar    1  UNL1        0.0016
     17 C          59.7393   95.1935    1.6120 C.ar    1  UNL1        0.0188
     18 C          61.0279   94.4272    1.5659 C.ar    1  UNL1        0.0796
     19 C          64.5982   93.9969    0.1054 C.3     1  UNL1        0.1381
     20 C          64.6848   94.6664   -1.2343 C.ar    1  UNL1        0.0111
     21 C          64.1359   93.9826   -2.4513 C.ar    1  UNL1       -0.0016
     22 C          64.2225   94.6520   -3.7908 C.ar    1  UNL1       -0.0002
     23 C          64.8580   96.0052   -3.9133 C.ar    1  UNL1        0.0008
     24 C          65.4069   96.6889   -2.6963 C.ar    1  UNL1        0.0111
     25 C          65.3203   96.0196   -1.3568 C.ar    1  UNL1        0.0555
     26 CL         65.8693   96.7034   -0.1397 Cl      1  UNL1       -0.0825
     27 C          59.0439   89.3284    7.4181 C.3     1  UNL1        0.0795
     28 C          59.0008   87.8290    7.4310 C.3     1  UNL1        0.0264
     29 C          59.7095   87.0676    8.5118 C.3     1  UNL1        0.0729
     30 N          60.4611   87.8056    9.5797 N.3     1  UNL1       -0.2689
     31 C          60.5042   89.3050    9.5668 C.3     1  UNL1        0.0729
     32 C          59.7956   90.0664    8.4860 C.3     1  UNL1        0.0264
     33 C          61.1698   87.0442   10.6605 C.3     1  UNL1        0.0992
     34 C          62.0588   85.8895   10.3051 C.ar    1  UNL1       -0.0031
     35 C          62.4228   84.8746   11.3480 C.ar    1  UNL1        0.0178
     36 C          63.3118   83.7199   10.9927 C.ar    1  UNL1        0.0986
     37 N          63.8368   83.5800    9.5946 N.ar    1  UNL1       -0.2423
     38 C          63.4728   84.5949    8.5517 C.ar    1  UNL1        0.0986
     39 C          62.5838   85.7496    8.9070 C.ar    1  UNL1        0.0178
@<TRIPOS>BOND
     1     1     2    2
     2     2    27    1
     3    27    28    1
     4    28    29    1
     5    29    30    1
     6    30    33    1
     7    33    34    1
     8    34    35   ar
     9    35    36   ar
    10    36    37   ar
    11    37    38   ar
    12    38    39   ar
    13    30    31    1
    14    31    32    1
    15     2     3   am
    16     3     4    1
    17     4     5    1
    18     5     6    1
    19     6     9    1
    20     9    10   ar
    21    10    11    2
    22    10    12   ar
    23    12    19    1
    24    19    20    1
    25    20    21   ar
    26    21    22   ar
    27    22    23   ar
    28    23    24   ar
    29    24    25   ar
    30    25    26    1
    31    12    13   ar
    32    13    14   ar
    33    14    15   ar
    34    15    16   ar
    35    16    17   ar
    36    17    18   ar
    37     6     7    1
    38     7     8    1
    39    32    27    1
    40     8     3    1
    41    39    34   ar
    42    18     9   ar
    43    25    20   ar
    44    18    13   ar
@<TRIPOS>MOLECULE
*****
 39 44 0 0 0
SMALL
GASTEIGER

@<TRIPOS>ATOM
      1 O          57.1219   90.8467    5.8073 O.2     1  UNL1       -0.2749
      2 C          58.6035   90.6156    5.8426 C.2     1  UNL1        0.2252
      3 N          59.4810   91.2122    4.7823 N.am    1  UNL1       -0.2794
      4 C          58.8768   92.0398    3.6869 C.3     1  UNL1        0.0953
      5 C          59.7543   92.6364    2.6266 C.3     1  UNL1        0.0442
      6 C          61.2360   92.4053    2.6618 C.3     1  UNL1        0.0933
      7 C          61.8401   91.5777    3.7572 C.3     1  UNL1        0.0442
      8 C          60.9627   90.9812    4.8175 C.3     1  UNL1        0.0953
      9 N          62.1135   93.0019    1.6016 N.ar    1  UNL1       -0.2817
     10 C          62.0139   92.7448    0.1271 C.ar    1  UNL1        0.3317
     11 O          61.0194   91.8460   -0.5459 O.2     1  UNL1       -0.2463
     12 N          63.0835   93.5444   -0.5560 N.ar    1  UNL1       -0.2757
     13 C          63.8441   94.2956    0.4962 C.ar    1  UNL1        0.0800
     14 C          65.0052   95.2416    0.4123 C.ar    1  UNL1        0.0188
     15 C          65.5667   95.8523    1.6620 C.ar    1  UNL1        0.0016
     16 C          64.9672   95.5171    2.9955 C.ar    1  UNL1        0.0016
     17 C          63.8062   94.5711    3.0793 C.ar    1  UNL1        0.0188
     18 C          63.2446   93.9603    1.8297 C.ar    1  UNL1        0.0796
     19 C          63.3464   93.5855   -2.0322 C.3     1  UNL1        0.1381
     20 C          62.4731   94.4147   -2.9267 C.ar    1  UNL1        0.0111
     21 C          61.1234   93.9060   -3.3384 C.ar    1  UNL1       -0.0016
     22 C          60.2502   94.7351   -4.2328 C.ar    1  UNL1       -0.0002
     23 C          60.7268   96.0729   -4.7156 C.ar    1  UNL1        0.0008
     24 C          62.0765   96.5816   -4.3040 C.ar    1  UNL1        0.0111
     25 C          62.9497   95.7525   -3.4096 C.ar    1  UNL1        0.0555
     26 CL         64.2995   96.2612   -2.9980 Cl      1  UNL1       -0.0825
     27 C          59.2077   89.7880    6.9380 C.3     1  UNL1        0.0795
     28 C          58.9693   88.3076    6.9780 C.3     1  UNL1        0.0264
     29 C          59.5735   87.4800    8.0734 C.3     1  UNL1        0.0729
     30 N          60.4161   88.1327    9.1289 N.3     1  UNL1       -0.2689
     31 C          60.6545   89.6132    9.0889 C.3     1  UNL1        0.0729
     32 C          60.0503   90.4409    7.9934 C.3     1  UNL1        0.0264
     33 C          61.0202   87.3051   10.2243 C.3     1  UNL1        0.0992
     34 C          61.9100   86.1462    9.8850 C.ar    1  UNL1       -0.0031
     35 C          62.3225   85.1791   10.9548 C.ar    1  UNL1        0.0178
     36 C          63.2123   84.0201   10.6156 C.ar    1  UNL1        0.0986
     37 N          63.6896   83.8283    9.2066 N.ar    1  UNL1       -0.2423
     38 C          63.2772   84.7955    8.1368 C.ar    1  UNL1        0.0986
     39 C          62.3874   85.9545    8.4760 C.ar    1  UNL1        0.0178
@<TRIPOS>BOND
     1     1     2    2
     2     2    27    1
     3    27    28    1
     4    28    29    1
     5    29    30    1
     6    30    33    1
     7    33    34    1
     8    34    35   ar
     9    35    36   ar
    10    36    37   ar
    11    37    38   ar
    12    38    39   ar
    13    30    31    1
    14    31    32    1
    15     2     3   am
    16     3     4    1
    17     4     5    1
    18     5     6    1
    19     6     9    1
    20     9    10   ar
    21    10    11    2
    22    10    12   ar
    23    12    19    1
    24    19    20    1
    25    20    21   ar
    26    21    22   ar
    27    22    23   ar
    28    23    24   ar
    29    24    25   ar
    30    25    26    1
    31    12    13   ar
    32    13    14   ar
    33    14    15   ar
    34    15    16   ar
    35    16    17   ar
    36    17    18   ar
    37     6     7    1
    38     7     8    1
    39    32    27    1
    40     8     3    1
    41    39    34   ar
    42    18     9   ar
    43    25    20   ar
    44    18    13   ar
