@<TRIPOS>MOLECULE
*****
 32 35 0 0 0
SMALL
GASTEIGER

@<TRIPOS>ATOM
      1 C          65.2957   91.7232   13.5551 C.ar    1  UNL1       -0.0044
      2 C          64.4217   91.3405   12.3978 C.ar    1  UNL1       -0.0014
      3 C          63.8351   89.9619   12.3247 C.ar    1  UNL1        0.0144
      4 C          64.1226   88.9660   13.4090 C.ar    1  UNL1        0.0516
      5 C          64.9967   89.3488   14.5663 C.ar    1  UNL1        0.0144
      6 C          65.5833   90.7274   14.6394 C.ar    1  UNL1       -0.0014
      7 N          63.5360   87.5874   13.3358 N.am    1  UNL1       -0.2681
      8 C          64.1672   86.4622   14.1011 C.2     1  UNL1        0.3077
      9 O          65.3849   86.7156   14.9394 O.2     1  UNL1       -0.2522
     10 N          63.5806   85.0836   14.0279 N.am    1  UNL1       -0.2632
     11 C          63.9206   83.7529   14.6309 C.3     1  UNL1        0.1010
     12 C          62.7510   83.1339   13.9245 C.3     1  UNL1        0.0636
     13 C          62.4110   84.4647   13.3215 C.3     1  UNL1        0.1010
     14 H          62.7368   87.4210   12.7856 H       1  UNL1        0.1564
     15 C          62.1644   81.7554   13.8513 C.ar    1  UNL1       -0.0000
     16 C          60.7406   81.5234   14.2625 C.ar    1  UNL1       -0.0010
     17 C          60.1540   80.1447   14.1894 C.ar    1  UNL1        0.0204
     18 C          60.9911   78.9982   13.7050 C.ar    1  UNL1        0.0989
     19 N          62.4149   79.2302   13.2938 N.ar    1  UNL1       -0.2426
     20 C          63.0015   80.6088   13.3670 C.ar    1  UNL1        0.0947
     21 C          66.5014   93.5868   14.9055 C.3     1  UNL1        0.0262
     22 C          65.8823   93.1019   13.6282 C.3     1  UNL1        0.0942
     23 N          65.8498   93.9956   12.4240 N.am    1  UNL1       -0.3011
     24 C          66.8230   93.7797   11.3032 C.2     1  UNL1        0.2372
     25 O          67.8288   92.6699   11.3866 O.2     1  UNL1       -0.2736
     26 H          65.1896   94.7240   12.3692 H       1  UNL1        0.1497
     27 C          66.7904   94.6734   10.0990 C.3     1  UNL1        0.1348
     28 C          67.2536   94.3108    8.7191 C.3     1  UNL1        0.0267
     29 C          67.0384   95.5000    7.8305 C.3     1  UNL1        0.0192
     30 C          66.4422   96.5975    8.6611 C.3     1  UNL1        0.0726
     31 N          66.2890   96.0867   10.0631 N.3     1  UNL1       -0.2653
     32 C          65.7320   96.8543   11.2253 C.3     1  UNL1        0.0900
@<TRIPOS>BOND
     1    22    21    1
     2    22    23    1
     3    23    24   am
     4    24    25    2
     5    27    24    1
     6    27    28    1
     7    28    29    1
     8    29    30    1
     9    30    31    1
    10    31    32    1
    11    22     1    1
    12     1     2   ar
    13     2     3   ar
    14     3     4   ar
    15     4     7    1
    16     7     8   am
    17     8     9    2
    18     8    10   am
    19    10    11    1
    20    11    12    1
    21    12    15    1
    22    15    16   ar
    23    16    17   ar
    24    17    18   ar
    25    18    19   ar
    26    19    20   ar
    27    12    13    1
    28     4     5   ar
    29     5     6   ar
    30    31    27    1
    31     6     1   ar
    32    13    10    1
    33    20    15   ar
    34    23    26    1
    35     7    14    1
@<TRIPOS>MOLECULE
*****
 32 35 0 0 0
SMALL
GASTEIGER

@<TRIPOS>ATOM
      1 C          59.9832   91.5022    4.4827 C.ar    1  UNL1       -0.0044
      2 C          61.4363   91.1580    4.3412 C.ar    1  UNL1       -0.0014
      3 C          62.2313   91.7159    3.1982 C.ar    1  UNL1        0.0144
      4 C          61.5733   92.6179    2.1966 C.ar    1  UNL1        0.0516
      5 C          60.1202   92.9621    2.3380 C.ar    1  UNL1        0.0144
      6 C          59.3252   92.4042    3.4811 C.ar    1  UNL1       -0.0014
      7 N          62.3684   93.1759    1.0535 N.am    1  UNL1       -0.2681
      8 C          61.9245   92.9322   -0.3584 C.2     1  UNL1        0.3077
      9 O          60.6854   92.1307   -0.6273 O.2     1  UNL1       -0.2522
     10 N          62.7196   93.4901   -1.5016 N.am    1  UNL1       -0.2632
     11 C          62.5947   93.4579   -2.9959 C.3     1  UNL1        0.1010
     12 C          63.8441   94.2791   -3.1180 C.3     1  UNL1        0.0636
     13 C          63.9689   94.3113   -1.6236 C.3     1  UNL1        0.1010
     14 H          63.1816   93.7019    1.2299 H       1  UNL1        0.1564
     15 C          64.6392   94.8370   -4.2610 C.ar    1  UNL1       -0.0000
     16 C          65.0672   93.9406   -5.3850 C.ar    1  UNL1       -0.0010
     17 C          65.8624   94.4985   -6.5281 C.ar    1  UNL1        0.0204
     18 C          66.2294   95.9528   -6.5472 C.ar    1  UNL1        0.0989
     19 N          65.8013   96.8492   -5.4232 N.ar    1  UNL1       -0.2426
     20 C          65.0062   96.2913   -4.2802 C.ar    1  UNL1        0.0947
     21 C          57.6921   90.8800    5.5380 C.3     1  UNL1        0.0262
     22 C          59.1881   90.9443    5.6258 C.3     1  UNL1        0.0942
     23 N          59.8891   90.4506    6.8566 N.am    1  UNL1       -0.3011
     24 C          59.4783   89.1513    7.4835 C.2     1  UNL1        0.2372
     25 O          58.3665   88.3456    6.8795 O.2     1  UNL1       -0.2736
     26 H          60.6188   90.9794    7.2530 H       1  UNL1        0.1497
     27 C          60.1793   88.6577    8.7143 C.3     1  UNL1        0.1348
     28 C          60.5244   89.4784    9.9215 C.3     1  UNL1        0.0267
     29 C          61.2167   88.5846   10.9073 C.3     1  UNL1        0.0192
     30 C          61.2994   87.2114   10.3094 C.3     1  UNL1        0.0726
     31 N          60.6583   87.2566    8.9541 N.3     1  UNL1       -0.2653
     32 C          60.5205   86.1031    8.0051 C.3     1  UNL1        0.0900
@<TRIPOS>BOND
     1    22    21    1
     2    22    23    1
     3    23    24   am
     4    24    25    2
     5    27    24    1
     6    27    28    1
     7    28    29    1
     8    29    30    1
     9    30    31    1
    10    31    32    1
    11    22     1    1
    12     1     2   ar
    13     2     3   ar
    14     3     4   ar
    15     4     7    1
    16     7     8   am
    17     8     9    2
    18     8    10   am
    19    10    11    1
    20    11    12    1
    21    12    15    1
    22    15    16   ar
    23    16    17   ar
    24    17    18   ar
    25    18    19   ar
    26    19    20   ar
    27    12    13    1
    28     4     5   ar
    29     5     6   ar
    30    31    27    1
    31     6     1   ar
    32    13    10    1
    33    20    15   ar
    34    23    26    1
    35     7    14    1
@<TRIPOS>MOLECULE
*****
 32 35 0 0 0
SMALL
GASTEIGER

@<TRIPOS>ATOM
      1 C          60.0259   91.2589    4.8159 C.ar    1  UNL1       -0.0044
      2 C          59.3768   92.3374    4.0001 C.ar    1  UNL1       -0.0014
      3 C          60.1323   92.9871    2.8790 C.ar    1  UNL1        0.0144
      4 C          61.5369   92.5583    2.5736 C.ar    1  UNL1        0.0516
      5 C          62.1860   91.4799    3.3893 C.ar    1  UNL1        0.0144
      6 C          61.4305   90.8302    4.5105 C.ar    1  UNL1       -0.0014
      7 N          62.2924   93.2081    1.4523 N.am    1  UNL1       -0.2681
      8 C          61.9534   92.8777    0.0290 C.2     1  UNL1        0.3077
      9 O          60.8588   91.8975   -0.2731 O.2     1  UNL1       -0.2522
     10 N          62.7089   93.5274   -1.0922 N.am    1  UNL1       -0.2632
     11 C          62.6579   93.4518   -2.5894 C.3     1  UNL1        0.1010
     12 C          63.7773   94.4463   -2.6778 C.3     1  UNL1        0.0636
     13 C          63.8283   94.5219   -1.1806 C.3     1  UNL1        0.1010
     14 H          63.0108   93.8514    1.6506 H       1  UNL1        0.1564
     15 C          64.5328   95.0961   -3.7989 C.ar    1  UNL1       -0.0000
     16 C          65.5056   96.1999   -3.5071 C.ar    1  UNL1       -0.0010
     17 C          66.2612   96.8497   -4.6282 C.ar    1  UNL1        0.0204
     18 C          66.0439   96.3957   -6.0413 C.ar    1  UNL1        0.0989
     19 N          65.0710   95.2918   -6.3331 N.ar    1  UNL1       -0.2426
     20 C          64.3155   94.6420   -5.2120 C.ar    1  UNL1        0.0947
     21 C          57.7765   90.4933    5.8668 C.3     1  UNL1        0.0262
     22 C          59.2704   90.6092    5.9371 C.3     1  UNL1        0.0942
     23 N          60.0088   90.0754    7.1287 N.am    1  UNL1       -0.3011
     24 C          59.6666   88.7226    7.6789 C.2     1  UNL1        0.2372
     25 O          58.5859   87.9035    7.0375 O.2     1  UNL1       -0.2736
     26 H          60.7180   90.6129    7.5496 H       1  UNL1        0.1497
     27 C          60.4050   88.1888    8.8704 C.3     1  UNL1        0.1348
     28 C          61.1032   86.8638    8.9541 C.3     1  UNL1        0.0267
     29 C          61.7045   86.7424   10.3229 C.3     1  UNL1        0.0192
     30 C          61.3780   87.9923   11.0852 C.3     1  UNL1        0.0726
     31 N          60.5748   88.8862   10.1875 N.3     1  UNL1       -0.2653
     32 C          60.0361   90.2399   10.5443 C.3     1  UNL1        0.0900
@<TRIPOS>BOND
     1    22    21    1
     2    22    23    1
     3    23    24   am
     4    24    25    2
     5    27    24    1
     6    27    28    1
     7    28    29    1
     8    29    30    1
     9    30    31    1
    10    31    32    1
    11    22     1    1
    12     1     2   ar
    13     2     3   ar
    14     3     4   ar
    15     4     7    1
    16     7     8   am
    17     8     9    2
    18     8    10   am
    19    10    11    1
    20    11    12    1
    21    12    15    1
    22    15    16   ar
    23    16    17   ar
    24    17    18   ar
    25    18    19   ar
    26    19    20   ar
    27    12    13    1
    28     4     5   ar
    29     5     6   ar
    30    31    27    1
    31     6     1   ar
    32    13    10    1
    33    20    15   ar
    34    23    26    1
    35     7    14    1
@<TRIPOS>MOLECULE
*****
 32 35 0 0 0
SMALL
GASTEIGER

@<TRIPOS>ATOM
      1 C          59.0958   95.0589   -0.1200 C.ar    1  UNL1       -0.0044
      2 C          59.8304   95.5887    1.0757 C.ar    1  UNL1       -0.0014
      3 C          60.1489   94.6781    2.2243 C.ar    1  UNL1        0.0144
      4 C          59.7330   93.2377    2.1772 C.ar    1  UNL1        0.0516
      5 C          58.9985   92.7079    0.9815 C.ar    1  UNL1        0.0144
      6 C          58.6799   93.6185   -0.1671 C.ar    1  UNL1       -0.0014
      7 N          60.0516   92.3271    3.3258 N.am    1  UNL1       -0.2681
      8 C          58.9484   91.8076    4.1994 C.2     1  UNL1        0.3077
      9 O          57.5267   92.1986    3.9244 O.2     1  UNL1       -0.2522
     10 N          59.2670   90.8969    5.3481 N.am    1  UNL1       -0.2632
     11 C          58.4616   90.2007    6.4046 C.3     1  UNL1        0.1010
     12 C          59.7177   89.6092    6.9724 C.3     1  UNL1        0.0636
     13 C          60.5232   90.3055    5.9158 C.3     1  UNL1        0.1010
     14 H          60.9847   92.0704    3.5063 H       1  UNL1        0.1564
     15 C          60.0363   88.6986    8.1210 C.ar    1  UNL1       -0.0000
     16 C          60.0504   87.2125    7.9183 C.ar    1  UNL1       -0.0010
     17 C          60.3691   86.3018    9.0669 C.ar    1  UNL1        0.0204
     18 C          60.6736   86.8774   10.4182 C.ar    1  UNL1        0.0989
     19 N          60.6595   88.3636   10.6209 N.ar    1  UNL1       -0.2426
     20 C          60.3409   89.2742    9.4723 C.ar    1  UNL1        0.0947
     21 C          59.8854   96.5403   -2.1029 C.3     1  UNL1        0.0262
     22 C          58.7772   95.9695   -1.2686 C.3     1  UNL1        0.0942
     23 N          57.3504   96.3093   -1.5829 N.am    1  UNL1       -0.3011
     24 C          56.5711   95.4598   -2.5426 C.2     1  UNL1        0.2372
     25 O          57.2185   94.2705   -3.1880 O.2     1  UNL1       -0.2736
     26 H          56.9255   97.0898   -1.1593 H       1  UNL1        0.1497
     27 C          55.1443   95.7996   -2.8569 C.3     1  UNL1        0.1348
     28 C          53.9824   95.6839   -1.9153 C.3     1  UNL1        0.0267
     29 C          52.7488   96.1275   -2.6444 C.3     1  UNL1        0.0192
     30 C          53.1484   96.5174   -4.0366 C.3     1  UNL1        0.0726
     31 N          54.6288   96.3148   -4.1679 N.3     1  UNL1       -0.2653
     32 C          55.4497   96.5806   -5.3949 C.3     1  UNL1        0.0900
@<TRIPOS>BOND
     1    22    21    1
     2    22    23    1
     3    23    24   am
     4    24    25    2
     5    27    24    1
     6    27    28    1
     7    28    29    1
     8    29    30    1
     9    30    31    1
    10    31    32    1
    11    22     1    1
    12     1     2   ar
    13     2     3   ar
    14     3     4   ar
    15     4     7    1
    16     7     8   am
    17     8     9    2
    18     8    10   am
    19    10    11    1
    20    11    12    1
    21    12    15    1
    22    15    16   ar
    23    16    17   ar
    24    17    18   ar
    25    18    19   ar
    26    19    20   ar
    27    12    13    1
    28     4     5   ar
    29     5     6   ar
    30    31    27    1
    31     6     1   ar
    32    13    10    1
    33    20    15   ar
    34    23    26    1
    35     7    14    1
@<TRIPOS>MOLECULE
*****
 32 35 0 0 0
SMALL
GASTEIGER

@<TRIPOS>ATOM
      1 C          60.1129   88.1968    9.2218 C.ar    1  UNL1       -0.0044
      2 C          59.5326   87.5305    8.0096 C.ar    1  UNL1       -0.0014
      3 C          59.2551   88.3332    6.7733 C.ar    1  UNL1        0.0144
      4 C          59.5578   89.8021    6.7491 C.ar    1  UNL1        0.0516
      5 C          60.1380   90.4684    7.9612 C.ar    1  UNL1        0.0144
      6 C          60.4156   89.6658    9.1976 C.ar    1  UNL1       -0.0014
      7 N          59.2802   90.6048    5.5126 N.am    1  UNL1       -0.2681
      8 C          60.4151   91.2095    4.7405 C.2     1  UNL1        0.3077
      9 O          61.8277   91.0116    5.2047 O.2     1  UNL1       -0.2522
     10 N          60.1376   92.0122    3.5040 N.am    1  UNL1       -0.2632
     11 C          60.9812   92.7458    2.5041 C.3     1  UNL1        0.1010
     12 C          59.7449   93.1473    1.7555 C.3     1  UNL1        0.0636
     13 C          58.9012   92.4137    2.7555 C.3     1  UNL1        0.1010
     14 H          58.3531   90.7347    5.2079 H       1  UNL1        0.1564
     15 C          59.4673   93.9499    0.5191 C.ar    1  UNL1       -0.0000
     16 C          59.1656   93.2538   -0.7749 C.ar    1  UNL1       -0.0010
     17 C          58.8880   94.0564   -2.0114 C.ar    1  UNL1        0.0204
     18 C          58.9121   95.5551   -1.9538 C.ar    1  UNL1        0.0989
     19 N          59.2137   96.2512   -0.6597 N.ar    1  UNL1       -0.2426
     20 C          59.4914   95.4486    0.5767 C.ar    1  UNL1        0.0947
     21 C          59.9749   87.9174   11.8011 C.3     1  UNL1        0.0262
     22 C          60.3904   87.3941   10.4582 C.3     1  UNL1        0.0942
     23 N          61.0836   86.0682   10.3517 N.am    1  UNL1       -0.3011
     24 C          62.2825   85.7779   11.2051 C.2     1  UNL1        0.2372
     25 O          62.7883   86.8137   12.1651 O.2     1  UNL1       -0.2736
     26 H          60.7517   85.3884    9.7216 H       1  UNL1        0.1497
     27 C          62.9757   84.4520   11.0986 C.3     1  UNL1        0.1348
     28 C          63.6113   83.8861    9.8634 C.3     1  UNL1        0.0267
     29 C          64.1834   82.5435   10.2099 C.3     1  UNL1        0.0192
     30 C          63.9014   82.2796   11.6594 C.3     1  UNL1        0.0726
     31 N          63.1550   83.4591   12.2086 N.3     1  UNL1       -0.2653
     32 C          62.6726   83.6178   13.6200 C.3     1  UNL1        0.0900
@<TRIPOS>BOND
     1    22    21    1
     2    22    23    1
     3    23    24   am
     4    24    25    2
     5    27    24    1
     6    27    28    1
     7    28    29    1
     8    29    30    1
     9    30    31    1
    10    31    32    1
    11    22     1    1
    12     1     2   ar
    13     2     3   ar
    14     3     4   ar
    15     4     7    1
    16     7     8   am
    17     8     9    2
    18     8    10   am
    19    10    11    1
    20    11    12    1
    21    12    15    1
    22    15    16   ar
    23    16    17   ar
    24    17    18   ar
    25    18    19   ar
    26    19    20   ar
    27    12    13    1
    28     4     5   ar
    29     5     6   ar
    30    31    27    1
    31     6     1   ar
    32    13    10    1
    33    20    15   ar
    34    23    26    1
    35     7    14    1
@<TRIPOS>MOLECULE
*****
 32 35 0 0 0
SMALL
GASTEIGER

@<TRIPOS>ATOM
      1 C          63.3371   86.5188   16.1529 C.ar    1  UNL1       -0.0044
      2 C          64.1847   86.3057   14.9339 C.ar    1  UNL1       -0.0014
      3 C          64.7052   87.4850   14.1669 C.ar    1  UNL1        0.0144
      4 C          64.3780   88.8774   14.6189 C.ar    1  UNL1        0.0516
      5 C          63.5304   89.0904   15.8380 C.ar    1  UNL1        0.0144
      6 C          63.0099   87.9111   16.6050 C.ar    1  UNL1       -0.0014
      7 N          64.8985   90.0567   13.8518 N.am    1  UNL1       -0.2681
      8 C          64.2361   90.4700   12.5711 C.2     1  UNL1        0.3077
      9 O          63.0531   89.7040   12.0574 O.2     1  UNL1       -0.2522
     10 N          64.7565   91.6494   11.8041 N.am    1  UNL1       -0.2632
     11 C          64.3712   92.3392   10.5292 C.3     1  UNL1        0.1010
     12 C          65.4927   93.3172   10.7193 C.3     1  UNL1        0.0636
     13 C          65.8780   92.6272   11.9943 C.3     1  UNL1        0.1010
     14 H          65.6749   90.5595   14.1890 H       1  UNL1        0.1564
     15 C          66.0132   94.4964    9.9524 C.ar    1  UNL1       -0.0000
     16 C          67.4234   94.4955    9.4414 C.ar    1  UNL1       -0.0010
     17 C          67.9440   95.6749    8.6743 C.ar    1  UNL1        0.0204
     18 C          67.0543   96.8550    8.4183 C.ar    1  UNL1        0.0989
     19 N          65.6439   96.8559    8.9293 N.ar    1  UNL1       -0.2426
     20 C          65.1234   95.6766    9.6963 C.ar    1  UNL1        0.0947
     21 C          62.2753   85.5261   18.3064 C.3     1  UNL1        0.0262
     22 C          62.8166   85.3394   16.9200 C.3     1  UNL1        0.0942
     23 N          62.8374   83.9734   16.3006 N.am    1  UNL1       -0.3011
     24 C          62.1668   83.7386   14.9796 C.2     1  UNL1        0.2372
     25 O          61.4753   84.8699   14.2779 O.2     1  UNL1       -0.2736
     26 H          63.2912   83.2310   16.7611 H       1  UNL1        0.1497
     27 C          62.1876   82.3727   14.3602 C.3     1  UNL1        0.1348
     28 C          61.1180   81.3292   14.4903 C.3     1  UNL1        0.0267
     29 C          61.5510   80.1219   13.7124 C.3     1  UNL1        0.0192
     30 C          62.8883   80.4193   13.1015 C.3     1  UNL1        0.0726
     31 N          63.2817   81.8103   13.5019 N.3     1  UNL1       -0.2653
     32 C          64.5472   82.5153   13.1123 C.3     1  UNL1        0.0900
@<TRIPOS>BOND
     1    22    21    1
     2    22    23    1
     3    23    24   am
     4    24    25    2
     5    27    24    1
     6    27    28    1
     7    28    29    1
     8    29    30    1
     9    30    31    1
    10    31    32    1
    11    22     1    1
    12     1     2   ar
    13     2     3   ar
    14     3     4   ar
    15     4     7    1
    16     7     8   am
    17     8     9    2
    18     8    10   am
    19    10    11    1
    20    11    12    1
    21    12    15    1
    22    15    16   ar
    23    16    17   ar
    24    17    18   ar
    25    18    19   ar
    26    19    20   ar
    27    12    13    1
    28     4     5   ar
    29     5     6   ar
    30    31    27    1
    31     6     1   ar
    32    13    10    1
    33    20    15   ar
    34    23    26    1
    35     7    14    1
@<TRIPOS>MOLECULE
*****
 32 35 0 0 0
SMALL
GASTEIGER

@<TRIPOS>ATOM
      1 C          61.0040   95.1938   -0.8174 C.ar    1  UNL1       -0.0044
      2 C          59.8364   95.1998    0.1242 C.ar    1  UNL1       -0.0014
      3 C          59.8486   94.3206    1.3394 C.ar    1  UNL1        0.0144
      4 C          61.0282   93.4354    1.6130 C.ar    1  UNL1        0.0516
      5 C          62.1957   93.4294    0.6713 C.ar    1  UNL1        0.0144
      6 C          62.1836   94.3086   -0.5439 C.ar    1  UNL1       -0.0014
      7 N          61.0403   92.5561    2.8283 N.am    1  UNL1       -0.2681
      8 C          59.7486   92.1567    3.4779 C.2     1  UNL1        0.3077
      9 O          58.4448   92.6365    2.9123 O.2     1  UNL1       -0.2522
     10 N          59.7607   91.2775    4.6932 N.am    1  UNL1       -0.2632
     11 C          58.7097   90.6887    5.5868 C.3     1  UNL1        0.1010
     12 C          59.7779   90.0341    6.4119 C.3     1  UNL1        0.0636
     13 C          60.8289   90.6230    5.5182 C.3     1  UNL1        0.1010
     14 H          61.8960   92.2412    3.1996 H       1  UNL1        0.1564
     15 C          59.7900   89.1550    7.6271 C.ar    1  UNL1       -0.0000
     16 C          59.4519   87.6989    7.5027 C.ar    1  UNL1       -0.0010
     17 C          59.4640   86.8196    8.7180 C.ar    1  UNL1        0.0204
     18 C          59.8142   87.3965   10.0576 C.ar    1  UNL1        0.0989
     19 N          60.1523   88.8527   10.1819 N.ar    1  UNL1       -0.2426
     20 C          60.1401   89.7318    8.9667 C.ar    1  UNL1        0.0947
     21 C          59.7594   96.8535   -2.3815 C.3     1  UNL1        0.0262
     22 C          60.9919   96.0730   -2.0328 C.3     1  UNL1        0.0942
     23 N          62.2124   96.1716   -2.8992 N.am    1  UNL1       -0.3011
     24 C          62.4178   95.1954   -4.0193 C.2     1  UNL1        0.2372
     25 O          61.4028   94.1205   -4.2730 O.2     1  UNL1       -0.2736
     26 H          62.8785   96.8771   -2.7327 H       1  UNL1        0.1497
     27 C          63.6383   95.2941   -4.8858 C.3     1  UNL1        0.1348
     28 C          64.0924   96.5123   -5.6338 C.3     1  UNL1        0.0267
     29 C          65.3537   96.1630   -6.3667 C.3     1  UNL1        0.0192
     30 C          65.6791   94.7288   -6.0716 C.3     1  UNL1        0.0726
     31 N          64.6190   94.1918   -5.1563 N.3     1  UNL1       -0.2653
     32 C          64.5514   92.7973   -4.6079 C.3     1  UNL1        0.0900
@<TRIPOS>BOND
     1    22    21    1
     2    22    23    1
     3    23    24   am
     4    24    25    2
     5    27    24    1
     6    27    28    1
     7    28    29    1
     8    29    30    1
     9    30    31    1
    10    31    32    1
    11    22     1    1
    12     1     2   ar
    13     2     3   ar
    14     3     4   ar
    15     4     7    1
    16     7     8   am
    17     8     9    2
    18     8    10   am
    19    10    11    1
    20    11    12    1
    21    12    15    1
    22    15    16   ar
    23    16    17   ar
    24    17    18   ar
    25    18    19   ar
    26    19    20   ar
    27    12    13    1
    28     4     5   ar
    29     5     6   ar
    30    31    27    1
    31     6     1   ar
    32    13    10    1
    33    20    15   ar
    34    23    26    1
    35     7    14    1
@<TRIPOS>MOLECULE
*****
 32 35 0 0 0
SMALL
GASTEIGER

@<TRIPOS>ATOM
      1 C          64.4287   90.6307   14.1113 C.ar    1  UNL1       -0.0044
      2 C          63.7776   90.4338   12.7745 C.ar    1  UNL1       -0.0014
      3 C          63.4395   89.0512   12.3012 C.ar    1  UNL1        0.0144
      4 C          63.7527   87.8654   13.1648 C.ar    1  UNL1        0.0516
      5 C          64.4038   88.0622   14.5017 C.ar    1  UNL1        0.0144
      6 C          64.7418   89.4449   14.9749 C.ar    1  UNL1       -0.0014
      7 N          63.4146   86.4827   12.6915 N.am    1  UNL1       -0.2681
      8 C          64.1570   85.3000   13.2394 C.2     1  UNL1        0.3077
      9 O          65.2374   85.5000   14.2605 O.2     1  UNL1       -0.2522
     10 N          63.8189   83.9173   12.7661 N.am    1  UNL1       -0.2632
     11 C          64.3239   82.5385   13.0719 C.3     1  UNL1        0.1010
     12 C          63.3408   81.9620   12.0967 C.3     1  UNL1        0.0636
     13 C          62.8357   83.3409   11.7909 C.3     1  UNL1        0.1010
     14 H          62.7055   86.3514   12.0213 H       1  UNL1        0.1564
     15 C          63.0027   80.5794   11.6234 C.ar    1  UNL1       -0.0000
     16 C          62.7012   79.4987   12.6189 C.ar    1  UNL1       -0.0010
     17 C          62.3631   78.1160   12.1456 C.ar    1  UNL1        0.0204
     18 C          62.3265   77.8141   10.6768 C.ar    1  UNL1        0.0989
     19 N          62.6280   78.8949    9.6812 N.ar    1  UNL1       -0.2426
     20 C          62.9661   80.2775   10.1545 C.ar    1  UNL1        0.0947
     21 C          64.8937   92.2934   16.0527 C.3     1  UNL1        0.0262
     22 C          64.7668   92.0134   14.5846 C.3     1  UNL1        0.0942
     23 N          64.9778   93.1159   13.5897 N.am    1  UNL1       -0.3011
     24 C          66.3071   93.2705   12.9122 C.2     1  UNL1        0.2372
     25 O          67.4254   92.3224   13.2295 O.2     1  UNL1       -0.2736
     26 H          64.2439   93.7382   13.3815 H       1  UNL1        0.1497
     27 C          66.5182   94.3730   11.9173 C.3     1  UNL1        0.1348
     28 C          66.3005   95.8366   12.1637 C.3     1  UNL1        0.0267
     29 C          66.6318   96.5737   10.9001 C.3     1  UNL1        0.0192
     30 C          67.0542   95.5658    9.8726 C.3     1  UNL1        0.0726
     31 N          66.9840   94.2057   10.5013 N.3     1  UNL1       -0.2653
     32 C          67.3205   92.9064    9.8316 C.3     1  UNL1        0.0900
@<TRIPOS>BOND
     1    22    21    1
     2    22    23    1
     3    23    24   am
     4    24    25    2
     5    27    24    1
     6    27    28    1
     7    28    29    1
     8    29    30    1
     9    30    31    1
    10    31    32    1
    11    22     1    1
    12     1     2   ar
    13     2     3   ar
    14     3     4   ar
    15     4     7    1
    16     7     8   am
    17     8     9    2
    18     8    10   am
    19    10    11    1
    20    11    12    1
    21    12    15    1
    22    15    16   ar
    23    16    17   ar
    24    17    18   ar
    25    18    19   ar
    26    19    20   ar
    27    12    13    1
    28     4     5   ar
    29     5     6   ar
    30    31    27    1
    31     6     1   ar
    32    13    10    1
    33    20    15   ar
    34    23    26    1
    35     7    14    1
@<TRIPOS>MOLECULE
*****
 32 35 0 0 0
SMALL
GASTEIGER

@<TRIPOS>ATOM
      1 C          58.9634   90.0430    6.2191 C.ar    1  UNL1       -0.0044
      2 C          58.4322   88.6509    6.3920 C.ar    1  UNL1       -0.0014
      3 C          58.9561   87.7800    7.4951 C.ar    1  UNL1        0.0144
      4 C          60.0112   88.3010    8.4253 C.ar    1  UNL1        0.0516
      5 C          60.5424   89.6931    8.2524 C.ar    1  UNL1        0.0144
      6 C          60.0185   90.5641    7.1493 C.ar    1  UNL1       -0.0014
      7 N          60.5352   87.4300    9.5284 N.am    1  UNL1       -0.2681
      8 C          61.4318   86.2712    9.2074 C.2     1  UNL1        0.3077
      9 O          61.8047   85.9834    7.7833 O.2     1  UNL1       -0.2522
     10 N          61.9558   85.4001   10.3105 N.am    1  UNL1       -0.2632
     11 C          62.8444   84.1937   10.3781 C.3     1  UNL1        0.1010
     12 C          62.6966   84.1683   11.8706 C.3     1  UNL1        0.0636
     13 C          61.8079   85.3748   11.8030 C.3     1  UNL1        0.1010
     14 H          60.2905   87.6188   10.4631 H       1  UNL1        0.1564
     15 C          63.2205   83.2973   12.9737 C.ar    1  UNL1       -0.0000
     16 C          63.1655   81.8043   12.8407 C.ar    1  UNL1       -0.0010
     17 C          63.6894   80.9332   13.9439 C.ar    1  UNL1        0.0204
     18 C          64.2682   81.5553   15.1800 C.ar    1  UNL1        0.0989
     19 N          64.3231   83.0484   15.3130 N.ar    1  UNL1       -0.2426
     20 C          63.7993   83.9194   14.2099 C.ar    1  UNL1        0.0947
     21 C          57.0264   91.4148    5.1627 C.3     1  UNL1        0.0262
     22 C          58.4395   90.9141    5.1160 C.3     1  UNL1        0.0942
     23 N          59.3288   91.2843    3.9661 N.am    1  UNL1       -0.3011
     24 C          59.7607   92.7087    3.7804 C.2     1  UNL1        0.2372
     25 O          59.3034   93.7629    4.7446 O.2     1  UNL1       -0.2736
     26 H          59.6290   90.5924    3.3334 H       1  UNL1        0.1497
     27 C          60.6500   93.0789    2.6306 C.3     1  UNL1        0.1348
     28 C          60.3122   94.0382    1.5280 C.3     1  UNL1        0.0267
     29 C          61.4867   94.1070    0.5975 C.3     1  UNL1        0.0192
     30 C          62.5503   93.1903    1.1249 C.3     1  UNL1        0.0726
     31 N          62.0332   92.5549    2.3815 N.3     1  UNL1       -0.2653
     32 C          62.7700   91.5686    3.2384 C.3     1  UNL1        0.0900
@<TRIPOS>BOND
     1    22    21    1
     2    22    23    1
     3    23    24   am
     4    24    25    2
     5    27    24    1
     6    27    28    1
     7    28    29    1
     8    29    30    1
     9    30    31    1
    10    31    32    1
    11    22     1    1
    12     1     2   ar
    13     2     3   ar
    14     3     4   ar
    15     4     7    1
    16     7     8   am
    17     8     9    2
    18     8    10   am
    19    10    11    1
    20    11    12    1
    21    12    15    1
    22    15    16   ar
    23    16    17   ar
    24    17    18   ar
    25    18    19   ar
    26    19    20   ar
    27    12    13    1
    28     4     5   ar
    29     5     6   ar
    30    31    27    1
    31     6     1   ar
    32    13    10    1
    33    20    15   ar
    34    23    26    1
    35     7    14    1
