@<TRIPOS>MOLECULE
*****
 39 42 0 0 0
SMALL
GASTEIGER

@<TRIPOS>ATOM
      1 C          62.8165   89.6856   12.8272 C.3     1  UNL1        0.1484
      2 O          61.5848   89.9224   13.6500 O.3     1  UNL1       -0.3810
      3 H          60.8264   89.4878   13.2293 H       1  UNL1        0.2105
      4 C          62.7322   88.8773   11.5664 C.3     1  UNL1        0.1245
      5 N          61.4701   88.8815   10.7558 N.am    1  UNL1       -0.2735
      6 C          61.0576   87.6509   10.0038 C.2     1  UNL1        0.2491
      7 O          59.7956   87.6551    9.1932 O.2     1  UNL1       -0.2699
      8 C          61.9072   86.4160   10.0626 C.ar    1  UNL1        0.0542
      9 C          62.5739   85.9046    8.8201 C.ar    1  UNL1        0.0061
     10 C          63.4236   84.6697    8.8789 C.ar    1  UNL1        0.0198
     11 C          63.6064   83.9465   10.1802 C.ar    1  UNL1        0.0879
     12 N          64.3794   82.7132   10.5430 N.ar    1  UNL1       -0.2363
     13 C          64.1903   82.4626   12.0098 C.ar    1  UNL1        0.1345
     14 S          63.3006   83.5409   12.5535 S.2     1  UNL1       -0.0645
     15 C          62.9397   84.4580   11.4227 C.ar    1  UNL1        0.0487
     16 C          62.0901   85.6928   11.3639 C.ar    1  UNL1        0.0125
     17 C          60.6205   90.1163   10.6971 C.3     1  UNL1        0.0937
     18 C          58.8987   89.0192   12.3038 C.3     1  UNL1        0.0018
     19 C          59.3800   90.2136   11.5346 C.3     1  UNL1        0.0199
     20 C          58.6207   91.5054   11.6030 C.3     1  UNL1        0.0018
     21 C          64.1324   90.2570   13.2652 C.3     1  UNL1        0.1076
     22 N          64.7706   91.3613   12.4758 N.am    1  UNL1       -0.2695
     23 C          65.4242   92.5097   13.1857 C.2     1  UNL1        0.4020
     24 O          65.4396   92.5538   14.6850 O.2     1  UNL1       -0.2264
     25 H          64.7605   91.3324   11.4918 H       1  UNL1        0.1528
     26 O          66.0623   93.6141   12.3963 O.3     1  UNL1       -0.4291
     27 C          66.3789   93.4119   10.9441 C.3     1  UNL1        0.2447
     28 C          66.7686   94.5827   10.0913 C.ar    1  UNL1        0.0714
     29 C          67.4068   94.5124    8.7357 C.ar    1  UNL1        0.1053
     30 N          67.6211   95.9156    8.2509 N.ar    1  UNL1       -0.2350
     31 C          67.1154   96.8532    9.3070 C.ar    1  UNL1        0.1343
     32 S          66.5885   96.0294   10.4443 S.2     1  UNL1       -0.0652
     33 C          64.8101   89.7240   14.4926 C.3     1  UNL1        0.0501
     34 C          64.2354   88.5400   15.2124 C.ar    1  UNL1       -0.0013
     35 C          64.5587   87.1508   14.7481 C.ar    1  UNL1       -0.0011
     36 C          63.9840   85.9667   15.4677 C.ar    1  UNL1        0.0204
     37 C          63.0862   86.1719   16.6517 C.ar    1  UNL1        0.0989
     38 N          62.7629   87.5611   17.1159 N.ar    1  UNL1       -0.2426
     39 C          63.3376   88.7452   16.3963 C.ar    1  UNL1        0.0946
@<TRIPOS>BOND
     1    18    19    1
     2    19    20    1
     3    19    17    1
     4    17     5    1
     5     5     4    1
     6     4     1    1
     7     1     2    1
     8     1    21    1
     9    21    33    1
    10    33    34    1
    11    34    35   ar
    12    35    36   ar
    13    36    37   ar
    14    37    38   ar
    15    38    39   ar
    16    21    22    1
    17    22    23   am
    18    23    24    2
    19    23    26    1
    20    26    27    1
    21    27    28    1
    22    28    29   ar
    23    29    30   ar
    24    30    31   ar
    25    31    32   ar
    26     5     6   am
    27     6     7    2
    28     6     8    1
    29     8     9   ar
    30     9    10   ar
    31    10    11   ar
    32    11    12   ar
    33    12    13   ar
    34    13    14   ar
    35    14    15   ar
    36    15    16   ar
    37    39    34   ar
    38    32    28   ar
    39    16     8   ar
    40    15    11   ar
    41     2     3    1
    42    22    25    1
@<TRIPOS>MOLECULE
*****
 39 42 0 0 0
SMALL
GASTEIGER

@<TRIPOS>ATOM
      1 C          63.1736   90.1893   11.4125 C.3     1  UNL1        0.1484
      2 O          63.0609   91.2967   10.4070 O.3     1  UNL1       -0.3810
      3 H          62.5351   90.9940    9.6502 H       1  UNL1        0.2105
      4 C          62.5175   88.8666   11.1480 C.3     1  UNL1        0.1245
      5 N          61.2175   88.8100   10.4017 N.am    1  UNL1       -0.2735
      6 C          60.8207   87.5562    9.6803 C.2     1  UNL1        0.2491
      7 O          59.5208   87.4997    8.9341 O.2     1  UNL1       -0.2699
      8 C          61.7240   86.3589    9.7051 C.ar    1  UNL1        0.0542
      9 C          62.5590   86.0243    8.5048 C.ar    1  UNL1        0.0061
     10 C          63.4623   84.8270    8.5297 C.ar    1  UNL1        0.0198
     11 C          63.5304   83.9643    9.7548 C.ar    1  UNL1        0.0879
     12 N          64.3219   82.7297   10.0703 N.ar    1  UNL1       -0.2363
     13 C          63.9759   82.3013   11.4655 C.ar    1  UNL1        0.1345
     14 S          62.9707   83.2711   12.0124 S.2     1  UNL1       -0.0645
     15 C          62.6953   84.2988   10.9551 C.ar    1  UNL1        0.0487
     16 C          61.7921   85.4962   10.9302 C.ar    1  UNL1        0.0125
     17 C          60.3143   90.0073   10.3769 C.3     1  UNL1        0.0937
     18 C          59.0614   89.1451   12.4833 C.3     1  UNL1        0.0018
     19 C          59.3475   90.2409   11.4998 C.3     1  UNL1        0.0199
     20 C          58.6667   91.5702   11.6390 C.3     1  UNL1        0.0018
     21 C          63.9423   90.4045   12.6825 C.3     1  UNL1        0.1076
     22 N          64.2886   89.2360   13.5568 N.am    1  UNL1       -0.2695
     23 C          63.5043   88.9778   14.8091 C.2     1  UNL1        0.4020
     24 O          62.3738   89.8883   15.1871 O.2     1  UNL1       -0.2264
     25 H          65.0306   88.6384   13.3087 H       1  UNL1        0.1528
     26 O          63.8507   87.8093   15.6834 O.3     1  UNL1       -0.4291
     27 C          64.5990   86.6413   15.1127 C.3     1  UNL1        0.2447
     28 C          64.0406   85.2555   15.2452 C.ar    1  UNL1        0.0714
     29 C          64.7907   83.9769   15.0157 C.ar    1  UNL1        0.1053
     30 N          63.8477   82.8361   15.2591 N.ar    1  UNL1       -0.2350
     31 C          62.5147   83.4096   15.6389 C.ar    1  UNL1        0.1343
     32 S          62.6339   84.9048   15.6303 S.2     1  UNL1       -0.0652
     33 C          64.3646   91.7884   13.0780 C.3     1  UNL1        0.0501
     34 C          65.6904   92.0060   13.7452 C.ar    1  UNL1       -0.0013
     35 C          65.7671   92.1312   15.2380 C.ar    1  UNL1       -0.0011
     36 C          67.0927   92.3489   15.9053 C.ar    1  UNL1        0.0204
     37 C          68.3417   92.4413   15.0797 C.ar    1  UNL1        0.0989
     38 N          68.2650   92.3161   13.5870 N.ar    1  UNL1       -0.2426
     39 C          66.9393   92.0985   12.9197 C.ar    1  UNL1        0.0946
@<TRIPOS>BOND
     1    18    19    1
     2    19    20    1
     3    19    17    1
     4    17     5    1
     5     5     4    1
     6     4     1    1
     7     1     2    1
     8     1    21    1
     9    21    33    1
    10    33    34    1
    11    34    35   ar
    12    35    36   ar
    13    36    37   ar
    14    37    38   ar
    15    38    39   ar
    16    21    22    1
    17    22    23   am
    18    23    24    2
    19    23    26    1
    20    26    27    1
    21    27    28    1
    22    28    29   ar
    23    29    30   ar
    24    30    31   ar
    25    31    32   ar
    26     5     6   am
    27     6     7    2
    28     6     8    1
    29     8     9   ar
    30     9    10   ar
    31    10    11   ar
    32    11    12   ar
    33    12    13   ar
    34    13    14   ar
    35    14    15   ar
    36    15    16   ar
    37    39    34   ar
    38    32    28   ar
    39    16     8   ar
    40    15    11   ar
    41     2     3    1
    42    22    25    1
@<TRIPOS>MOLECULE
*****
 39 42 0 0 0
SMALL
GASTEIGER

@<TRIPOS>ATOM
      1 C          63.0768   90.5652   10.7645 C.3     1  UNL1        0.1484
      2 O          62.8517   91.5381    9.6450 O.3     1  UNL1       -0.3810
      3 H          62.3519   91.1047    8.9356 H       1  UNL1        0.2105
      4 C          62.5482   89.1654   10.6591 C.3     1  UNL1        0.1245
      5 N          61.1238   88.9301   10.2520 N.am    1  UNL1       -0.2735
      6 C          60.6740   87.5547    9.8570 C.2     1  UNL1        0.2491
      7 O          59.2496   87.3195    9.4500 O.2     1  UNL1       -0.2699
      8 C          61.6487   86.4146    9.8692 C.ar    1  UNL1        0.0542
      9 C          62.3579   86.0207    8.6076 C.ar    1  UNL1        0.0061
     10 C          63.3326   84.8805    8.6198 C.ar    1  UNL1        0.0198
     11 C          63.5979   84.1343    9.8936 C.ar    1  UNL1        0.0879
     12 N          64.4980   82.9768   10.2099 N.ar    1  UNL1       -0.2363
     13 C          64.3450   82.6553   11.6670 C.ar    1  UNL1        0.1345
     14 S          63.3503   83.6142   12.2513 S.2     1  UNL1       -0.0645
     15 C          62.8886   84.5282   11.1553 C.ar    1  UNL1        0.0487
     16 C          61.9140   85.6684   11.1431 C.ar    1  UNL1        0.0125
     17 C          60.1492   90.0703   10.2399 C.3     1  UNL1        0.0937
     18 C          59.2554   89.3765   12.5786 C.3     1  UNL1        0.0018
     19 C          59.3383   90.3769   11.4640 C.3     1  UNL1        0.0199
     20 C          58.6103   91.6838   11.5734 C.3     1  UNL1        0.0018
     21 C          63.8303   90.9922   11.9891 C.3     1  UNL1        0.1076
     22 N          63.1567   90.9721   13.3292 N.am    1  UNL1       -0.2695
     23 C          63.2942   89.7730   14.2199 C.2     1  UNL1        0.4020
     24 O          64.1053   88.5940   13.7704 O.2     1  UNL1       -0.2264
     25 H          62.6244   91.7460   13.6242 H       1  UNL1        0.1528
     26 O          62.6206   89.7530   15.5599 O.3     1  UNL1       -0.4291
     27 C          63.2082   88.9507   16.6828 C.3     1  UNL1        0.2447
     28 C          63.0804   87.4561   16.6838 C.ar    1  UNL1        0.0714
     29 C          62.1744   86.6492   17.5659 C.ar    1  UNL1        0.1053
     30 N          62.3703   85.2005   17.2300 N.ar    1  UNL1       -0.2350
     31 C          63.3973   85.1120   16.1404 C.ar    1  UNL1        0.1343
     32 S          63.8362   86.5061   15.8028 S.2     1  UNL1       -0.0652
     33 C          65.2575   91.4392   11.8737 C.3     1  UNL1        0.0501
     34 C          65.5798   92.9007   11.7723 C.ar    1  UNL1       -0.0013
     35 C          65.3387   93.6344   10.4865 C.ar    1  UNL1       -0.0011
     36 C          65.6610   95.0959   10.3851 C.ar    1  UNL1        0.0204
     37 C          66.2244   95.8236   11.5696 C.ar    1  UNL1        0.0989
     38 N          66.4655   95.0899   12.8554 N.ar    1  UNL1       -0.2426
     39 C          66.1432   93.6284   12.9568 C.ar    1  UNL1        0.0946
@<TRIPOS>BOND
     1    18    19    1
     2    19    20    1
     3    19    17    1
     4    17     5    1
     5     5     4    1
     6     4     1    1
     7     1     2    1
     8     1    21    1
     9    21    33    1
    10    33    34    1
    11    34    35   ar
    12    35    36   ar
    13    36    37   ar
    14    37    38   ar
    15    38    39   ar
    16    21    22    1
    17    22    23   am
    18    23    24    2
    19    23    26    1
    20    26    27    1
    21    27    28    1
    22    28    29   ar
    23    29    30   ar
    24    30    31   ar
    25    31    32   ar
    26     5     6   am
    27     6     7    2
    28     6     8    1
    29     8     9   ar
    30     9    10   ar
    31    10    11   ar
    32    11    12   ar
    33    12    13   ar
    34    13    14   ar
    35    14    15   ar
    36    15    16   ar
    37    39    34   ar
    38    32    28   ar
    39    16     8   ar
    40    15    11   ar
    41     2     3    1
    42    22    25    1
@<TRIPOS>MOLECULE
*****
 39 42 0 0 0
SMALL
GASTEIGER

@<TRIPOS>ATOM
      1 C          62.7266   90.0229   12.4177 C.3     1  UNL1        0.1484
      2 O          61.4857   90.2171   13.2378 O.3     1  UNL1       -0.3810
      3 H          61.5725   91.0237   13.7695 H       1  UNL1        0.2105
      4 C          63.8502   91.0121   12.5119 C.3     1  UNL1        0.1245
      5 N          64.9188   90.8371   13.5499 N.am    1  UNL1       -0.2735
      6 C          66.1981   91.6135   13.4478 C.2     1  UNL1        0.2491
      7 O          67.2666   91.4384   14.4858 O.2     1  UNL1       -0.2699
      8 C          66.4089   92.5651   12.3076 C.ar    1  UNL1        0.0542
      9 C          66.9737   92.0676   11.0101 C.ar    1  UNL1        0.0061
     10 C          67.1844   93.0192    9.8699 C.ar    1  UNL1        0.0198
     11 C          66.8304   94.4683   10.0272 C.ar    1  UNL1        0.0879
     12 N          66.9263   95.6327    9.0865 N.ar    1  UNL1       -0.2363
     13 C          66.4207   96.8499    9.8027 C.ar    1  UNL1        0.1345
     14 S          66.0124   96.4377   11.1860 S.2     1  UNL1       -0.0645
     15 C          66.2656   94.9658   11.3247 C.ar    1  UNL1        0.0487
     16 C          66.0549   94.0142   12.4649 C.ar    1  UNL1        0.0125
     17 C          64.7080   89.8855   14.6901 C.3     1  UNL1        0.0937
     18 C          64.0656   91.7204   16.4136 C.3     1  UNL1        0.0018
     19 C          63.9270   90.3198   15.8949 C.3     1  UNL1        0.0199
     20 C          63.0073   89.3535   16.5809 C.3     1  UNL1        0.0018
     21 C          62.8439   88.8394   11.5035 C.3     1  UNL1        0.1076
     22 N          63.1409   87.4819   12.0683 N.am    1  UNL1       -0.2695
     23 C          62.0360   86.4816   12.2366 C.2     1  UNL1        0.4020
     24 O          60.6341   86.8387   11.8402 O.2     1  UNL1       -0.2264
     25 H          64.0610   87.2475   12.3284 H       1  UNL1        0.1528
     26 O          62.3329   85.1241   12.8014 O.3     1  UNL1       -0.4291
     27 C          62.9403   84.0654   11.9295 C.3     1  UNL1        0.2447
     28 C          62.7892   82.6177   12.2917 C.ar    1  UNL1        0.0714
     29 C          63.0217   81.4512   11.3778 C.ar    1  UNL1        0.1053
     30 N          62.7553   80.1948   12.1527 N.ar    1  UNL1       -0.2350
     31 C          62.3581   80.5848   13.5456 C.ar    1  UNL1        0.1343
     32 S          62.3791   82.0822   13.6315 S.2     1  UNL1       -0.0652
     33 C          62.6643   89.0136   10.0246 C.3     1  UNL1        0.0501
     34 C          61.6982   88.1416    9.2785 C.ar    1  UNL1       -0.0013
     35 C          62.1040   86.7592    8.8610 C.ar    1  UNL1       -0.0011
     36 C          61.1380   85.8872    8.1150 C.ar    1  UNL1        0.0204
     37 C          59.7663   86.3976    7.7865 C.ar    1  UNL1        0.0989
     38 N          59.3606   87.7800    8.2040 N.ar    1  UNL1       -0.2426
     39 C          60.3265   88.6520    8.9500 C.ar    1  UNL1        0.0946
@<TRIPOS>BOND
     1    18    19    1
     2    19    20    1
     3    19    17    1
     4    17     5    1
     5     5     4    1
     6     4     1    1
     7     1     2    1
     8     1    21    1
     9    21    33    1
    10    33    34    1
    11    34    35   ar
    12    35    36   ar
    13    36    37   ar
    14    37    38   ar
    15    38    39   ar
    16    21    22    1
    17    22    23   am
    18    23    24    2
    19    23    26    1
    20    26    27    1
    21    27    28    1
    22    28    29   ar
    23    29    30   ar
    24    30    31   ar
    25    31    32   ar
    26     5     6   am
    27     6     7    2
    28     6     8    1
    29     8     9   ar
    30     9    10   ar
    31    10    11   ar
    32    11    12   ar
    33    12    13   ar
    34    13    14   ar
    35    14    15   ar
    36    15    16   ar
    37    39    34   ar
    38    32    28   ar
    39    16     8   ar
    40    15    11   ar
    41     2     3    1
    42    22    25    1
@<TRIPOS>MOLECULE
*****
 39 42 0 0 0
SMALL
GASTEIGER

@<TRIPOS>ATOM
      1 C          62.8032   85.2135   11.7553 C.3     1  UNL1        0.1484
      2 O          63.8276   84.5279   10.9005 O.3     1  UNL1       -0.3810
      3 H          64.0833   83.6880   11.3131 H       1  UNL1        0.2105
      4 C          62.3406   84.5732   13.0305 C.3     1  UNL1        0.1245
      5 N          63.2509   83.6426   13.7758 N.am    1  UNL1       -0.2735
      6 C          63.9213   84.0998   15.0374 C.2     1  UNL1        0.2491
      7 O          64.8315   83.1693   15.7827 O.2     1  UNL1       -0.2699
      8 C          63.6813   85.4876   15.5537 C.ar    1  UNL1        0.0542
      9 C          62.8945   85.6934   16.8140 C.ar    1  UNL1        0.0061
     10 C          62.6546   87.0812   17.3303 C.ar    1  UNL1        0.0198
     11 C          63.2014   88.2632   16.5861 C.ar    1  UNL1        0.0879
     12 N          63.1268   89.7378   16.8505 N.ar    1  UNL1       -0.2363
     13 C          63.8675   90.4434   15.7534 C.ar    1  UNL1        0.1345
     14 S          64.3999   89.4048   14.8111 S.2     1  UNL1       -0.0645
     15 C          63.9882   88.0574   15.3257 C.ar    1  UNL1        0.0487
     16 C          64.2282   86.6696   14.8095 C.ar    1  UNL1        0.0125
     17 C          63.4909   82.2549   13.2595 C.3     1  UNL1        0.0937
     18 C          62.5425   79.9103   12.6648 C.3     1  UNL1        0.0018
     19 C          62.4346   81.2020   13.4198 C.3     1  UNL1        0.0199
     20 C          61.2704   81.4407   14.3350 C.3     1  UNL1        0.0018
     21 C          62.2414   86.5392   11.3350 C.3     1  UNL1        0.1076
     22 N          62.8019   87.8070   11.9082 N.am    1  UNL1       -0.2695
     23 C          62.6822   89.0925   11.1446 C.2     1  UNL1        0.4020
     24 O          62.0019   89.1103    9.8078 O.2     1  UNL1       -0.2264
     25 H          63.2484   87.7954   12.7855 H       1  UNL1        0.1528
     26 O          63.2427   90.3603   11.7178 O.3     1  UNL1       -0.4291
     27 C          63.8400   91.3942   10.8098 C.3     1  UNL1        0.2447
     28 C          64.9648   92.2593   11.2958 C.ar    1  UNL1        0.0714
     29 C          65.8518   93.1150   10.4408 C.ar    1  UNL1        0.1053
     30 N          66.8354   93.8052   11.3386 N.ar    1  UNL1       -0.2350
     31 C          66.5563   93.3760   12.7486 C.ar    1  UNL1        0.1343
     32 S          65.4003   92.4206   12.7221 S.2     1  UNL1       -0.0652
     33 C          61.1191   86.5972   10.3415 C.3     1  UNL1        0.0501
     34 C          61.2883   85.9854    8.9824 C.ar    1  UNL1       -0.0013
     35 C          62.6369   85.4985    8.5417 C.ar    1  UNL1       -0.0011
     36 C          62.8061   84.8867    7.1827 C.ar    1  UNL1        0.0204
     37 C          61.6268   84.7619    6.2642 C.ar    1  UNL1        0.0989
     38 N          60.2782   85.2489    6.7048 N.ar    1  UNL1       -0.2426
     39 C          60.1090   85.8606    8.0639 C.ar    1  UNL1        0.0946
@<TRIPOS>BOND
     1    18    19    1
     2    19    20    1
     3    19    17    1
     4    17     5    1
     5     5     4    1
     6     4     1    1
     7     1     2    1
     8     1    21    1
     9    21    33    1
    10    33    34    1
    11    34    35   ar
    12    35    36   ar
    13    36    37   ar
    14    37    38   ar
    15    38    39   ar
    16    21    22    1
    17    22    23   am
    18    23    24    2
    19    23    26    1
    20    26    27    1
    21    27    28    1
    22    28    29   ar
    23    29    30   ar
    24    30    31   ar
    25    31    32   ar
    26     5     6   am
    27     6     7    2
    28     6     8    1
    29     8     9   ar
    30     9    10   ar
    31    10    11   ar
    32    11    12   ar
    33    12    13   ar
    34    13    14   ar
    35    14    15   ar
    36    15    16   ar
    37    39    34   ar
    38    32    28   ar
    39    16     8   ar
    40    15    11   ar
    41     2     3    1
    42    22    25    1
@<TRIPOS>MOLECULE
*****
 39 42 0 0 0
SMALL
GASTEIGER

@<TRIPOS>ATOM
      1 C          62.4032   85.8539   11.3936 C.3     1  UNL1        0.1484
      2 O          62.8270   85.0695   10.1873 O.3     1  UNL1       -0.3810
      3 H          63.1618   84.2029   10.4663 H       1  UNL1        0.2105
      4 C          62.5370   85.2551   12.7624 C.3     1  UNL1        0.1245
      5 N          63.8032   84.5522   13.1531 N.am    1  UNL1       -0.2735
      6 C          64.6328   85.0764   14.2875 C.2     1  UNL1        0.2491
      7 O          65.8989   84.3734   14.6781 O.2     1  UNL1       -0.2699
      8 C          64.1962   86.3037   15.0313 C.ar    1  UNL1        0.0542
      9 C          63.4052   86.1709   16.2987 C.ar    1  UNL1        0.0061
     10 C          62.9685   87.3982   17.0425 C.ar    1  UNL1        0.0198
     11 C          63.3231   88.7584   16.5187 C.ar    1  UNL1        0.0879
     12 N          63.0335   90.1380   17.0311 N.ar    1  UNL1       -0.2363
     13 C          63.6457   91.1235   16.0803 C.ar    1  UNL1        0.1345
     14 S          64.3135   90.3530   14.9803 S.2     1  UNL1       -0.0645
     15 C          64.1141   88.8912   15.2512 C.ar    1  UNL1        0.0487
     16 C          64.5507   87.6638   14.5075 C.ar    1  UNL1        0.0125
     17 C          64.2398   83.3249   12.4093 C.3     1  UNL1        0.0937
     18 C          62.4996   81.6800   13.4174 C.3     1  UNL1        0.0018
     19 C          63.2945   82.1720   12.2443 C.3     1  UNL1        0.0199
     20 C          63.1441   81.5110   10.9062 C.3     1  UNL1        0.0018
     21 C          61.8455   87.2369   11.2312 C.3     1  UNL1        0.1076
     22 N          62.7333   88.4307   11.4224 N.am    1  UNL1       -0.2695
     23 C          62.1868   89.6789   12.0497 C.2     1  UNL1        0.4020
     24 O          60.7526   89.7331   12.4858 O.2     1  UNL1       -0.2264
     25 H          63.6745   88.3951   11.1362 H       1  UNL1        0.1528
     26 O          63.0745   90.8727   12.2409 O.3     1  UNL1       -0.4291
     27 C          64.0100   91.2947   11.1470 C.3     1  UNL1        0.2447
     28 C          65.0083   92.3868   11.3934 C.ar    1  UNL1        0.0714
     29 C          65.7008   92.6714   12.6932 C.ar    1  UNL1        0.1053
     30 N          66.6099   93.8465   12.4865 N.ar    1  UNL1       -0.2350
     31 C          66.4793   94.2881   11.0590 C.ar    1  UNL1        0.1343
     32 S          65.4894   93.3860   10.3835 S.2     1  UNL1       -0.0652
     33 C          60.4001   87.4259   10.8776 C.3     1  UNL1        0.0501
     34 C          60.0087   87.7402    9.4640 C.ar    1  UNL1       -0.0013
     35 C          60.1522   89.1381    8.9393 C.ar    1  UNL1       -0.0011
     36 C          59.7608   89.4525    7.5258 C.ar    1  UNL1        0.0204
     37 C          59.2260   88.3690    6.6370 C.ar    1  UNL1        0.0989
     38 N          59.0826   86.9711    7.1617 N.ar    1  UNL1       -0.2426
     39 C          59.4739   86.6567    8.5752 C.ar    1  UNL1        0.0946
@<TRIPOS>BOND
     1    18    19    1
     2    19    20    1
     3    19    17    1
     4    17     5    1
     5     5     4    1
     6     4     1    1
     7     1     2    1
     8     1    21    1
     9    21    33    1
    10    33    34    1
    11    34    35   ar
    12    35    36   ar
    13    36    37   ar
    14    37    38   ar
    15    38    39   ar
    16    21    22    1
    17    22    23   am
    18    23    24    2
    19    23    26    1
    20    26    27    1
    21    27    28    1
    22    28    29   ar
    23    29    30   ar
    24    30    31   ar
    25    31    32   ar
    26     5     6   am
    27     6     7    2
    28     6     8    1
    29     8     9   ar
    30     9    10   ar
    31    10    11   ar
    32    11    12   ar
    33    12    13   ar
    34    13    14   ar
    35    14    15   ar
    36    15    16   ar
    37    39    34   ar
    38    32    28   ar
    39    16     8   ar
    40    15    11   ar
    41     2     3    1
    42    22    25    1
@<TRIPOS>MOLECULE
*****
 39 42 0 0 0
SMALL
GASTEIGER

@<TRIPOS>ATOM
      1 C          62.3876   89.3361   12.3262 C.3     1  UNL1        0.1484
      2 O          61.5880   89.9513   13.4363 O.3     1  UNL1       -0.3810
      3 H          61.6625   89.4012   14.2317 H       1  UNL1        0.2105
      4 C          63.1381   88.0588   12.5613 C.3     1  UNL1        0.1245
      5 N          63.9865   87.9023   13.7884 N.am    1  UNL1       -0.2735
      6 C          64.3122   86.5324   14.3054 C.2     1  UNL1        0.2491
      7 O          65.1605   86.3760   15.5324 O.2     1  UNL1       -0.2699
      8 C          63.7895   85.3189   13.5952 C.ar    1  UNL1        0.0542
      9 C          63.0591   85.4682   12.2936 C.ar    1  UNL1        0.0061
     10 C          62.5364   84.2547   11.5834 C.ar    1  UNL1        0.0198
     11 C          62.7441   82.8920   12.1749 C.ar    1  UNL1        0.0879
     12 N          62.3454   81.5236   11.7075 N.ar    1  UNL1       -0.2363
     13 C          62.8294   80.5286   12.7203 C.ar    1  UNL1        0.1345
     14 S          63.5273   81.2821   13.8136 S.2     1  UNL1       -0.0645
     15 C          63.4745   82.7428   13.4766 C.ar    1  UNL1        0.0487
     16 C          63.9972   83.9563   14.1867 C.ar    1  UNL1        0.0125
     17 C          64.5092   89.1158   14.4985 C.3     1  UNL1        0.0937
     18 C          63.8861   91.0914   16.0666 C.3     1  UNL1        0.0018
     19 C          63.8021   89.6356   15.7150 C.3     1  UNL1        0.0199
     20 C          63.0109   88.6997   16.5798 C.3     1  UNL1        0.0018
     21 C          62.4367   89.9982   10.9811 C.3     1  UNL1        0.1076
     22 N          63.6820   90.7084   10.5397 N.am    1  UNL1       -0.2695
     23 C          64.3686   91.6656   11.4683 C.2     1  UNL1        0.4020
     24 O          63.8099   91.9126   12.8383 O.2     1  UNL1       -0.2264
     25 H          64.0487   90.5462    9.6406 H       1  UNL1        0.1528
     26 O          65.6139   92.3757   11.0270 O.3     1  UNL1       -0.4291
     27 C          66.2362   93.4171   11.9092 C.3     1  UNL1        0.2447
     28 C          66.7476   93.0407   13.2681 C.ar    1  UNL1        0.0714
     29 C          66.5616   93.8300   14.5300 C.ar    1  UNL1        0.1053
     30 N          67.2340   93.0859   15.6455 N.ar    1  UNL1       -0.2350
     31 C          67.8355   91.8368   15.0730 C.ar    1  UNL1        0.1343
     32 S          67.5350   91.8088   13.6037 S.2     1  UNL1       -0.0652
     33 C          61.2404   89.9500   10.0775 C.3     1  UNL1        0.0501
     34 C          60.9163   88.6913    9.3287 C.ar    1  UNL1       -0.0013
     35 C          61.8379   87.5107    9.4120 C.ar    1  UNL1       -0.0011
     36 C          61.5138   86.2520    8.6633 C.ar    1  UNL1        0.0204
     37 C          60.2682   86.1739    7.8312 C.ar    1  UNL1        0.0989
     38 N          59.3467   87.3544    7.7479 N.ar    1  UNL1       -0.2426
     39 C          59.6707   88.6132    8.4966 C.ar    1  UNL1        0.0946
@<TRIPOS>BOND
     1    18    19    1
     2    19    20    1
     3    19    17    1
     4    17     5    1
     5     5     4    1
     6     4     1    1
     7     1     2    1
     8     1    21    1
     9    21    33    1
    10    33    34    1
    11    34    35   ar
    12    35    36   ar
    13    36    37   ar
    14    37    38   ar
    15    38    39   ar
    16    21    22    1
    17    22    23   am
    18    23    24    2
    19    23    26    1
    20    26    27    1
    21    27    28    1
    22    28    29   ar
    23    29    30   ar
    24    30    31   ar
    25    31    32   ar
    26     5     6   am
    27     6     7    2
    28     6     8    1
    29     8     9   ar
    30     9    10   ar
    31    10    11   ar
    32    11    12   ar
    33    12    13   ar
    34    13    14   ar
    35    14    15   ar
    36    15    16   ar
    37    39    34   ar
    38    32    28   ar
    39    16     8   ar
    40    15    11   ar
    41     2     3    1
    42    22    25    1
@<TRIPOS>MOLECULE
*****
 39 42 0 0 0
SMALL
GASTEIGER

@<TRIPOS>ATOM
      1 C          62.3830   89.3462   12.3139 C.3     1  UNL1        0.1484
      2 O          61.6356   89.9965   13.4403 O.3     1  UNL1       -0.3810
      3 H          61.7314   89.4611   14.2435 H       1  UNL1        0.2105
      4 C          63.1214   88.0615   12.5468 C.3     1  UNL1        0.1245
      5 N          63.9910   87.9053   13.7591 N.am    1  UNL1       -0.2735
      6 C          64.3399   86.5353   14.2604 C.2     1  UNL1        0.2491
      7 O          65.2094   86.3792   15.4726 O.2     1  UNL1       -0.2699
      8 C          63.8193   85.3214   13.5494 C.ar    1  UNL1        0.0542
      9 C          63.1351   85.4653   12.2224 C.ar    1  UNL1        0.0061
     10 C          62.6145   84.2514   11.5114 C.ar    1  UNL1        0.0198
     11 C          62.7781   82.8936   12.1275 C.ar    1  UNL1        0.0879
     12 N          62.3707   81.5260   11.6653 N.ar    1  UNL1       -0.2363
     13 C          62.8031   80.5369   12.7068 C.ar    1  UNL1        0.1345
     14 S          63.4778   81.2932   13.8126 S.2     1  UNL1       -0.0645
     15 C          63.4624   82.7498   13.4546 C.ar    1  UNL1        0.0487
     16 C          63.9830   83.9636   14.1655 C.ar    1  UNL1        0.0125
     17 C          64.5115   89.1192   14.4701 C.3     1  UNL1        0.0937
     18 C          63.8857   91.0675   16.0708 C.3     1  UNL1        0.0018
     19 C          63.8279   89.6125   15.7107 C.3     1  UNL1        0.0199
     20 C          63.0865   88.6508   16.5914 C.3     1  UNL1        0.0018
     21 C          62.3919   89.9806   10.9547 C.3     1  UNL1        0.1076
     22 N          63.6201   90.6894   10.4659 N.am    1  UNL1       -0.2695
     23 C          64.3329   91.6590   11.3614 C.2     1  UNL1        0.4020
     24 O          63.8174   91.9196   12.7457 O.2     1  UNL1       -0.2264
     25 H          63.9584   90.5184    9.5573 H       1  UNL1        0.1528
     26 O          65.5611   92.3678   10.8726 O.3     1  UNL1       -0.4291
     27 C          65.8734   93.7510   11.3616 C.3     1  UNL1        0.2447
     28 C          66.4842   94.7558   10.4303 C.ar    1  UNL1        0.0714
     29 C          67.1808   94.4502    9.1375 C.ar    1  UNL1        0.1053
     30 N          67.6327   95.7481    8.5365 N.ar    1  UNL1       -0.2350
     31 C          67.2155   96.8558    9.4578 C.ar    1  UNL1        0.1343
     32 S          66.5056   96.2425   10.6282 S.2     1  UNL1       -0.0652
     33 C          61.1725   89.9060   10.0843 C.3     1  UNL1        0.0501
     34 C          60.8767   88.6537    9.3134 C.ar    1  UNL1       -0.0013
     35 C          61.7734   87.4591    9.4508 C.ar    1  UNL1       -0.0011
     36 C          61.4777   86.2067    8.6799 C.ar    1  UNL1        0.0204
     37 C          60.2853   86.1489    7.7718 C.ar    1  UNL1        0.0989
     38 N          59.3886   87.3435    7.6344 N.ar    1  UNL1       -0.2426
     39 C          59.6843   88.5959    8.4052 C.ar    1  UNL1        0.0946
@<TRIPOS>BOND
     1    18    19    1
     2    19    20    1
     3    19    17    1
     4    17     5    1
     5     5     4    1
     6     4     1    1
     7     1     2    1
     8     1    21    1
     9    21    33    1
    10    33    34    1
    11    34    35   ar
    12    35    36   ar
    13    36    37   ar
    14    37    38   ar
    15    38    39   ar
    16    21    22    1
    17    22    23   am
    18    23    24    2
    19    23    26    1
    20    26    27    1
    21    27    28    1
    22    28    29   ar
    23    29    30   ar
    24    30    31   ar
    25    31    32   ar
    26     5     6   am
    27     6     7    2
    28     6     8    1
    29     8     9   ar
    30     9    10   ar
    31    10    11   ar
    32    11    12   ar
    33    12    13   ar
    34    13    14   ar
    35    14    15   ar
    36    15    16   ar
    37    39    34   ar
    38    32    28   ar
    39    16     8   ar
    40    15    11   ar
    41     2     3    1
    42    22    25    1
@<TRIPOS>MOLECULE
*****
 39 42 0 0 0
SMALL
GASTEIGER

@<TRIPOS>ATOM
      1 C          62.7730   89.0145   12.6021 C.3     1  UNL1        0.1484
      2 O          61.5500   89.8785   12.5139 O.3     1  UNL1       -0.3810
      3 H          60.8905   89.4485   11.9473 H       1  UNL1        0.2105
      4 C          62.8221   87.7072   11.8682 C.3     1  UNL1        0.1245
      5 N          62.2401   87.5983   10.4900 N.am    1  UNL1       -0.2735
      6 C          62.1916   86.2677    9.7992 C.2     1  UNL1        0.2491
      7 O          61.6097   86.1589    8.4211 O.2     1  UNL1       -0.2699
      8 C          62.7251   85.0459   10.4867 C.ar    1  UNL1        0.0542
      9 C          63.6951   84.1490    9.7765 C.ar    1  UNL1        0.0061
     10 C          64.2286   82.9272   10.4640 C.ar    1  UNL1        0.0198
     11 C          63.7920   82.6024   11.8619 C.ar    1  UNL1        0.0879
     12 N          64.1450   81.4760   12.7874 N.ar    1  UNL1       -0.2363
     13 C          63.3931   81.6768   14.0697 C.ar    1  UNL1        0.1345
     14 S          62.5754   82.9273   13.9366 S.2     1  UNL1       -0.0645
     15 C          62.8220   83.4994   12.5721 C.ar    1  UNL1        0.0487
     16 C          62.2885   84.7211   11.8846 C.ar    1  UNL1        0.0125
     17 C          61.7067   88.8201    9.8025 C.3     1  UNL1        0.0937
     18 C          59.2138   88.6671   10.5181 C.3     1  UNL1        0.0018
     19 C          60.2490   88.9121    9.4607 C.3     1  UNL1        0.0199
     20 C          59.8266   89.2492    8.0614 C.3     1  UNL1        0.0018
     21 C          63.9469   89.4577   13.4240 C.3     1  UNL1        0.1076
     22 N          64.3788   90.8940   13.4014 N.am    1  UNL1       -0.2695
     23 C          64.4318   91.6408   12.1016 C.2     1  UNL1        0.4020
     24 O          64.0530   90.9513   10.8244 O.2     1  UNL1       -0.2264
     25 H          64.6274   91.3466   14.2396 H       1  UNL1        0.1528
     26 O          64.8637   93.0771   12.0789 O.3     1  UNL1       -0.4291
     27 C          66.2911   93.4358   12.3683 C.3     1  UNL1        0.2447
     28 C          66.9347   92.9814   13.6447 C.ar    1  UNL1        0.0714
     29 C          67.9718   91.9055   13.7749 C.ar    1  UNL1        0.1053
     30 N          68.3323   91.7823   15.2257 N.ar    1  UNL1       -0.2350
     31 C          67.5180   92.7820   15.9922 C.ar    1  UNL1        0.1343
     32 S          66.6543   93.5231   15.0151 S.2     1  UNL1       -0.0652
     33 C          64.6888   88.4647   14.2685 C.3     1  UNL1        0.0501
     34 C          63.9766   87.7358   15.3692 C.ar    1  UNL1       -0.0013
     35 C          63.3529   88.5042   16.4964 C.ar    1  UNL1       -0.0011
     36 C          62.6407   87.7754   17.5972 C.ar    1  UNL1        0.0204
     37 C          62.5522   86.2783   17.5708 C.ar    1  UNL1        0.0989
     38 N          63.1759   85.5099   16.4436 N.ar    1  UNL1       -0.2426
     39 C          63.8881   86.2387   15.3428 C.ar    1  UNL1        0.0946
@<TRIPOS>BOND
     1    18    19    1
     2    19    20    1
     3    19    17    1
     4    17     5    1
     5     5     4    1
     6     4     1    1
     7     1     2    1
     8     1    21    1
     9    21    33    1
    10    33    34    1
    11    34    35   ar
    12    35    36   ar
    13    36    37   ar
    14    37    38   ar
    15    38    39   ar
    16    21    22    1
    17    22    23   am
    18    23    24    2
    19    23    26    1
    20    26    27    1
    21    27    28    1
    22    28    29   ar
    23    29    30   ar
    24    30    31   ar
    25    31    32   ar
    26     5     6   am
    27     6     7    2
    28     6     8    1
    29     8     9   ar
    30     9    10   ar
    31    10    11   ar
    32    11    12   ar
    33    12    13   ar
    34    13    14   ar
    35    14    15   ar
    36    15    16   ar
    37    39    34   ar
    38    32    28   ar
    39    16     8   ar
    40    15    11   ar
    41     2     3    1
    42    22    25    1
