@<TRIPOS>MOLECULE
*****
 39 43 0 0 0
SMALL
GASTEIGER

@<TRIPOS>ATOM
      1 N          61.7778   88.4062   11.4276 N.am    1  UNL1       -0.2769
      2 C          62.7682   87.3011   11.6464 C.2     1  UNL1        0.2305
      3 O          63.7036   87.3534   12.8178 O.2     1  UNL1       -0.2747
      4 C          62.8233   86.1438   10.6937 C.3     1  UNL1        0.1329
      5 C          62.8602   86.3909    9.2147 C.3     1  UNL1        0.0816
      6 N          62.9152   85.2335    8.2622 N.3     1  UNL1       -0.2968
      7 C          62.9333   83.8291    8.7886 C.3     1  UNL1        0.0726
      8 C          62.8964   83.5819   10.2676 C.3     1  UNL1        0.0620
      9 C          62.8413   84.7393   11.2202 C.3     1  UNL1        0.1657
     10 O          62.7855   85.7907   12.2887 O.3     1  UNL1       -0.4479
     11 C          62.7634   85.0986   13.6193 C.2     1  UNL1        0.3411
     12 O          62.7087   85.7680   14.9604 O.2     1  UNL1       -0.2449
     13 C          62.8056   83.6195   13.3733 C.ar    1  UNL1        0.0749
     14 C          62.8064   82.4462   14.3077 C.ar    1  UNL1        0.0062
     15 C          62.8553   81.0507   13.7595 C.ar    1  UNL1        0.0002
     16 C          62.9035   80.8287   12.2768 C.ar    1  UNL1       -0.0002
     17 C          62.9027   82.0021   11.3423 C.ar    1  UNL1       -0.0007
     18 C          62.8538   83.3974   11.8905 C.ar    1  UNL1        0.0204
     19 H          63.7620   85.3503    7.7056 H       1  UNL1        0.1233
     20 C          60.8424   88.3539   10.2561 C.3     1  UNL1        0.0758
     21 C          60.3223   88.9494    8.9814 C.3     1  UNL1        0.0215
     22 C          59.7424   87.6677    9.5018 C.3     1  UNL1        0.0215
     23 C          61.7228   89.5635   12.3802 C.3     1  UNL1        0.1201
     24 C          64.7331   92.0309   11.6057 C.ar    1  UNL1       -0.0194
     25 C          63.5257   91.1628   11.4096 C.ar    1  UNL1       -0.0067
     26 C          62.9302   90.4317   12.5763 C.ar    1  UNL1        0.0004
     27 C          63.5422   90.5687   13.9388 C.ar    1  UNL1        0.0343
     28 C          64.7496   91.4368   14.1349 C.ar    1  UNL1        0.1381
     29 C          65.3451   92.1679   12.9684 C.ar    1  UNL1        0.0326
     30 C          65.3286   92.7621   10.4392 C.3     1  UNL1        0.0290
     31 C          66.1052   94.0256   10.6632 C.3     1  UNL1        0.0367
     32 C          67.1827   94.4248    9.6989 C.3     1  UNL1        0.1426
     33 C          68.7450   92.4418    9.0853 C.3     1  UNL1        0.1741
     34 O          68.5274   93.7632    9.7609 O.3     1  UNL1       -0.3511
     35 O          65.3616   91.5737   15.4976 O.3     1  UNL1       -0.4728
     36 C          66.5171   92.5063   15.7105 C.3     1  UNL1        0.2373
     37 C          67.9182   92.0344   15.4573 C.3     1  UNL1        0.1894
     38 O          68.9974   93.0260   15.1380 O.3     1  UNL1       -0.3471
     39 C          69.1304   94.2782   15.9531 C.3     1  UNL1        0.1743
@<TRIPOS>BOND
     1    33    34    1
     2    34    32    1
     3    32    31    1
     4    31    30    1
     5    30    24    1
     6    24    25   ar
     7    25    26   ar
     8    26    23    1
     9    23     1    1
    10     1     2   am
    11     2     3    2
    12     4     2    1
    13     4     5    1
    14     5     6    1
    15     6     7    1
    16     7     8    1
    17     9     8    1
    18     9    10    1
    19    10    11    1
    20    11    12    2
    21    11    13    1
    22    13    14   ar
    23    14    15   ar
    24    15    16   ar
    25    16    17   ar
    26    17    18   ar
    27     1    20    1
    28    20    21    1
    29    21    22    1
    30    26    27   ar
    31    27    28   ar
    32    28    35    1
    33    35    36    1
    34    36    37    1
    35    37    38    1
    36    38    39    1
    37    28    29   ar
    38    29    24   ar
    39     9     4    1
    40    18    13   ar
    41    22    20    1
    42    18     9    1
    43     6    19    1
@<TRIPOS>MOLECULE
*****
 39 43 0 0 0
SMALL
GASTEIGER

@<TRIPOS>ATOM
      1 N          61.8164   88.3318   11.4530 N.am    1  UNL1       -0.2769
      2 C          62.7976   87.2226   11.6914 C.2     1  UNL1        0.2305
      3 O          63.7192   87.2776   12.8736 O.2     1  UNL1       -0.2747
      4 C          62.8572   86.0582   10.7475 C.3     1  UNL1        0.1329
      5 C          62.9161   86.2948    9.2675 C.3     1  UNL1        0.0816
      6 N          62.9757   85.1305    8.3237 N.3     1  UNL1       -0.2968
      7 C          62.9764   83.7296    8.8599 C.3     1  UNL1        0.0726
      8 C          62.9176   83.4930   10.3400 C.3     1  UNL1        0.0620
      9 C          62.8580   84.6573   11.2838 C.3     1  UNL1        0.1657
     10 O          62.7952   85.7165   12.3442 O.3     1  UNL1       -0.4479
     11 C          62.7499   85.0339   13.6791 C.2     1  UNL1        0.3411
     12 O          62.6818   85.7130   15.0147 O.2     1  UNL1       -0.2449
     13 C          62.7848   83.5528   13.4438 C.ar    1  UNL1        0.0749
     14 C          62.7643   82.3861   14.3862 C.ar    1  UNL1        0.0062
     15 C          62.8106   80.9865   13.8483 C.ar    1  UNL1        0.0002
     16 C          62.8774   80.7539   12.3680 C.ar    1  UNL1       -0.0002
     17 C          62.8978   81.9207   11.4254 C.ar    1  UNL1       -0.0007
     18 C          62.8515   83.3201   11.9634 C.ar    1  UNL1        0.0204
     19 H          63.8308   85.2373    7.7780 H       1  UNL1        0.1233
     20 C          60.8948   88.2767   10.2707 C.3     1  UNL1        0.0758
     21 C          59.7741   87.6126    9.5271 C.3     1  UNL1        0.0215
     22 C          60.4193   88.8453    8.9667 C.3     1  UNL1        0.0215
     23 C          61.7568   89.4961   12.3968 C.3     1  UNL1        0.1201
     24 C          64.7988   91.4333   14.0532 C.ar    1  UNL1       -0.0194
     25 C          63.6083   90.5346   13.8947 C.ar    1  UNL1       -0.0067
     26 C          62.9473   90.3948   12.5554 C.ar    1  UNL1        0.0004
     27 C          63.4767   91.1536   11.3748 C.ar    1  UNL1        0.0343
     28 C          64.6671   92.0523   11.5334 C.ar    1  UNL1        0.1381
     29 C          65.3282   92.1921   12.8726 C.ar    1  UNL1        0.0326
     30 C          65.4599   91.5731   15.3924 C.3     1  UNL1        0.0290
     31 C          66.4638   92.6634   15.6230 C.3     1  UNL1        0.0367
     32 C          67.9307   92.3652   15.5256 C.3     1  UNL1        0.1426
     33 C          68.6309   91.6897   13.1167 C.3     1  UNL1        0.1741
     34 O          68.6740   92.6629   14.2573 O.3     1  UNL1       -0.3511
     35 O          65.1966   92.8112   10.3527 O.3     1  UNL1       -0.4728
     36 C          65.9774   94.0747   10.5621 C.3     1  UNL1        0.2373
     37 C          67.1090   94.4186    9.6395 C.3     1  UNL1        0.1894
     38 O          68.4347   93.7333    9.7906 O.3     1  UNL1       -0.3471
     39 C          68.6804   92.4177    9.1134 C.3     1  UNL1        0.1743
@<TRIPOS>BOND
     1    33    34    1
     2    34    32    1
     3    32    31    1
     4    31    30    1
     5    30    24    1
     6    24    25   ar
     7    25    26   ar
     8    26    23    1
     9    23     1    1
    10     1     2   am
    11     2     3    2
    12     4     2    1
    13     4     5    1
    14     5     6    1
    15     6     7    1
    16     7     8    1
    17     9     8    1
    18     9    10    1
    19    10    11    1
    20    11    12    2
    21    11    13    1
    22    13    14   ar
    23    14    15   ar
    24    15    16   ar
    25    16    17   ar
    26    17    18   ar
    27     1    20    1
    28    20    21    1
    29    21    22    1
    30    26    27   ar
    31    27    28   ar
    32    28    35    1
    33    35    36    1
    34    36    37    1
    35    37    38    1
    36    38    39    1
    37    28    29   ar
    38    29    24   ar
    39     9     4    1
    40    18    13   ar
    41    22    20    1
    42    18     9    1
    43     6    19    1
@<TRIPOS>MOLECULE
*****
 39 43 0 0 0
SMALL
GASTEIGER

@<TRIPOS>ATOM
      1 N          61.3839   87.9727   10.9864 N.am    1  UNL1       -0.2769
      2 C          62.4737   86.9844   11.2793 C.2     1  UNL1        0.2305
      3 O          63.3456   87.1652   12.4864 O.2     1  UNL1       -0.2747
      4 C          62.6915   85.8153   10.3650 C.3     1  UNL1        0.1329
      5 C          62.8248   86.0337    8.8870 C.3     1  UNL1        0.0816
      6 N          63.0426   84.8646    7.9729 N.3     1  UNL1       -0.2968
      7 C          63.1271   83.4772    8.5367 C.3     1  UNL1        0.0726
      8 C          62.9938   83.2588   10.0146 C.3     1  UNL1        0.0620
      9 C          62.7760   84.4279   10.9288 C.3     1  UNL1        0.1657
     10 O          62.5564   85.4937   11.9613 O.3     1  UNL1       -0.4479
     11 C          62.4835   84.8299   13.3045 C.2     1  UNL1        0.3411
     12 O          62.2731   85.5208   14.6191 O.2     1  UNL1       -0.2449
     13 C          62.6580   83.3538   13.1022 C.ar    1  UNL1        0.0749
     14 C          62.6757   82.2040   14.0652 C.ar    1  UNL1        0.0062
     15 C          62.8742   80.8055   13.5600 C.ar    1  UNL1        0.0002
     16 C          63.0549   80.5571   12.0918 C.ar    1  UNL1       -0.0002
     17 C          63.0372   81.7070   11.1287 C.ar    1  UNL1       -0.0007
     18 C          62.8388   83.1054   11.6339 C.ar    1  UNL1        0.0204
     19 H          63.9188   85.0358    7.4795 H       1  UNL1        0.1233
     20 C          60.5120   87.7918    9.7793 C.3     1  UNL1        0.0758
     21 C          59.5528   86.9578    8.9828 C.3     1  UNL1        0.0215
     22 C          59.9610   88.3127    8.4850 C.3     1  UNL1        0.0215
     23 C          61.1661   89.1417   11.9006 C.3     1  UNL1        0.1201
     24 C          64.2250   91.6624   11.7027 C.ar    1  UNL1       -0.0194
     25 C          63.0642   90.8071   11.2892 C.ar    1  UNL1       -0.0067
     26 C          62.3269   89.9971   12.3141 C.ar    1  UNL1        0.0004
     27 C          62.7504   90.0423   13.7523 C.ar    1  UNL1        0.0343
     28 C          63.9112   90.8976   14.1657 C.ar    1  UNL1        0.1381
     29 C          64.6485   91.7077   13.1410 C.ar    1  UNL1        0.0326
     30 C          64.9623   92.4725   10.6779 C.3     1  UNL1        0.0290
     31 C          66.4457   92.6606   10.7962 C.3     1  UNL1        0.0367
     32 C          67.1389   93.6980    9.9633 C.3     1  UNL1        0.1426
     33 C          67.0273   96.2771    9.6717 C.3     1  UNL1        0.1741
     34 O          67.3548   95.0777   10.5107 O.3     1  UNL1       -0.3511
     35 O          64.3348   90.9429   15.6040 O.3     1  UNL1       -0.4728
     36 C          63.4713   90.3191   16.6601 C.3     1  UNL1        0.2373
     37 C          63.1587   88.8531   16.6039 C.3     1  UNL1        0.1894
     38 O          63.0982   88.0500   17.8693 O.3     1  UNL1       -0.3471
     39 C          62.6944   86.6062   17.8228 C.3     1  UNL1        0.1743
@<TRIPOS>BOND
     1    33    34    1
     2    34    32    1
     3    32    31    1
     4    31    30    1
     5    30    24    1
     6    24    25   ar
     7    25    26   ar
     8    26    23    1
     9    23     1    1
    10     1     2   am
    11     2     3    2
    12     4     2    1
    13     4     5    1
    14     5     6    1
    15     6     7    1
    16     7     8    1
    17     9     8    1
    18     9    10    1
    19    10    11    1
    20    11    12    2
    21    11    13    1
    22    13    14   ar
    23    14    15   ar
    24    15    16   ar
    25    16    17   ar
    26    17    18   ar
    27     1    20    1
    28    20    21    1
    29    21    22    1
    30    26    27   ar
    31    27    28   ar
    32    28    35    1
    33    35    36    1
    34    36    37    1
    35    37    38    1
    36    38    39    1
    37    28    29   ar
    38    29    24   ar
    39     9     4    1
    40    18    13   ar
    41    22    20    1
    42    18     9    1
    43     6    19    1
@<TRIPOS>MOLECULE
*****
 39 43 0 0 0
SMALL
GASTEIGER

@<TRIPOS>ATOM
      1 N          61.3623   87.9483   10.8827 N.am    1  UNL1       -0.2769
      2 C          62.4660   86.9846   11.2037 C.2     1  UNL1        0.2305
      3 O          63.3330   87.2110   12.4066 O.2     1  UNL1       -0.2747
      4 C          62.7027   85.7945   10.3218 C.3     1  UNL1        0.1329
      5 C          62.8592   85.9775    8.8413 C.3     1  UNL1        0.0816
      6 N          63.0959   84.7874    7.9594 N.3     1  UNL1       -0.2968
      7 C          63.1762   83.4144    8.5581 C.3     1  UNL1        0.0726
      8 C          63.0198   83.2315   10.0386 C.3     1  UNL1        0.0620
      9 C          62.7830   84.4215   10.9205 C.3     1  UNL1        0.1657
     10 O          62.5430   85.5112   11.9231 O.3     1  UNL1       -0.4479
     11 C          62.4508   84.8800   13.2807 C.2     1  UNL1        0.3411
     12 O          62.2166   85.6018   14.5745 O.2     1  UNL1       -0.2449
     13 C          62.6338   83.4001   13.1172 C.ar    1  UNL1        0.0749
     14 C          62.6400   82.2741   14.1080 C.ar    1  UNL1        0.0062
     15 C          62.8516   80.8646   13.6403 C.ar    1  UNL1        0.0002
     16 C          63.0569   80.5813   12.1817 C.ar    1  UNL1       -0.0002
     17 C          63.0507   81.7074   11.1907 C.ar    1  UNL1       -0.0007
     18 C          62.8391   83.1168   11.6585 C.ar    1  UNL1        0.0204
     19 H          63.9794   84.9501    7.4762 H       1  UNL1        0.1233
     20 C          60.4953   87.7219    9.6797 C.3     1  UNL1        0.0758
     21 C          59.9838   88.1729    8.3436 C.3     1  UNL1        0.0215
     22 C          59.5052   86.8788    8.9321 C.3     1  UNL1        0.0215
     23 C          61.1255   89.1384   11.7645 C.3     1  UNL1        0.1201
     24 C          63.9005   90.8732   14.0094 C.ar    1  UNL1       -0.0194
     25 C          62.7497   90.0033   13.5987 C.ar    1  UNL1       -0.0067
     26 C          62.2764   90.0083   12.1753 C.ar    1  UNL1        0.0004
     27 C          62.9539   90.8832   11.1627 C.ar    1  UNL1        0.0343
     28 C          64.1048   91.7532   11.5734 C.ar    1  UNL1        0.1381
     29 C          64.5781   91.7482   12.9968 C.ar    1  UNL1        0.0326
     30 C          64.3739   90.8682   15.4327 C.3     1  UNL1        0.0290
     31 C          63.4799   90.3470   16.5185 C.3     1  UNL1        0.0367
     32 C          63.1058   88.8946   16.5495 C.3     1  UNL1        0.1426
     33 C          62.7315   86.6956   17.8813 C.3     1  UNL1        0.1741
     34 O          63.1047   88.1481   17.8505 O.3     1  UNL1       -0.3511
     35 O          64.7823   92.6282   10.5608 O.3     1  UNL1       -0.4728
     36 C          66.0557   93.3376   10.9147 C.3     1  UNL1        0.2373
     37 C          66.9309   93.8933    9.8308 C.3     1  UNL1        0.1894
     38 O          68.4065   93.6242    9.8464 O.3     1  UNL1       -0.3471
     39 C          68.9551   92.4116    9.1545 C.3     1  UNL1        0.1743
@<TRIPOS>BOND
     1    33    34    1
     2    34    32    1
     3    32    31    1
     4    31    30    1
     5    30    24    1
     6    24    25   ar
     7    25    26   ar
     8    26    23    1
     9    23     1    1
    10     1     2   am
    11     2     3    2
    12     4     2    1
    13     4     5    1
    14     5     6    1
    15     6     7    1
    16     7     8    1
    17     9     8    1
    18     9    10    1
    19    10    11    1
    20    11    12    2
    21    11    13    1
    22    13    14   ar
    23    14    15   ar
    24    15    16   ar
    25    16    17   ar
    26    17    18   ar
    27     1    20    1
    28    20    21    1
    29    21    22    1
    30    26    27   ar
    31    27    28   ar
    32    28    35    1
    33    35    36    1
    34    36    37    1
    35    37    38    1
    36    38    39    1
    37    28    29   ar
    38    29    24   ar
    39     9     4    1
    40    18    13   ar
    41    22    20    1
    42    18     9    1
    43     6    19    1
@<TRIPOS>MOLECULE
*****
 39 43 0 0 0
SMALL
GASTEIGER

@<TRIPOS>ATOM
      1 N          63.5271   88.7520   15.9452 N.am    1  UNL1       -0.2769
      2 C          64.2266   88.2761   14.7066 C.2     1  UNL1        0.2305
      3 O          64.8887   89.2642   13.7926 O.2     1  UNL1       -0.2747
      4 C          64.2642   86.8121   14.3820 C.3     1  UNL1        0.1329
      5 C          64.9641   85.8573   15.3031 C.3     1  UNL1        0.0816
      6 N          65.0016   84.3934   14.9785 N.3     1  UNL1       -0.2968
      7 C          64.3392   83.8842   13.7327 C.3     1  UNL1        0.0726
      8 C          63.6393   84.8390   12.8116 C.3     1  UNL1        0.0620
      9 C          63.6018   86.3029   13.1362 C.3     1  UNL1        0.1657
     10 O          63.4822   87.7858   13.3283 O.3     1  UNL1       -0.4479
     11 C          62.7051   88.3418   12.1720 C.2     1  UNL1        0.3411
     12 O          62.3510   89.7838   11.9597 O.2     1  UNL1       -0.2449
     13 C          62.3443   87.2026   11.2653 C.ar    1  UNL1        0.0749
     14 C          61.5828   87.1499    9.9741 C.ar    1  UNL1        0.0062
     15 C          61.3754   85.8370    9.2787 C.ar    1  UNL1        0.0002
     16 C          61.9296   84.5770    9.8746 C.ar    1  UNL1       -0.0002
     17 C          62.6912   84.6297   11.1659 C.ar    1  UNL1       -0.0007
     18 C          62.8985   85.9425   11.8612 C.ar    1  UNL1        0.0204
     19 H          64.5675   83.9067   15.7628 H       1  UNL1        0.1233
     20 C          62.8650   87.7638   16.8592 C.3     1  UNL1        0.0758
     21 C          61.8353   86.6985   17.0936 C.3     1  UNL1        0.0215
     22 C          62.7480   87.1177   18.2078 C.3     1  UNL1        0.0215
     23 C          63.4895   90.2159   16.2698 C.3     1  UNL1        0.1201
     24 C          65.1022   92.3000   13.3023 C.ar    1  UNL1       -0.0194
     25 C          64.2166   91.3441   14.0453 C.ar    1  UNL1       -0.0067
     26 C          64.3751   91.1719   15.5269 C.ar    1  UNL1        0.0004
     27 C          65.4192   91.9555   16.2656 C.ar    1  UNL1        0.0343
     28 C          66.3048   92.9115   15.5227 C.ar    1  UNL1        0.1381
     29 C          66.1463   93.0837   14.0411 C.ar    1  UNL1        0.0326
     30 C          64.9437   92.4723   11.8208 C.3     1  UNL1        0.0290
     31 C          66.1554   92.5274   10.9383 C.3     1  UNL1        0.0367
     32 C          66.6756   93.8507   10.4604 C.3     1  UNL1        0.1426
     33 C          68.6431   92.6758    9.2364 C.3     1  UNL1        0.1741
     34 O          67.9969   93.9264    9.7543 O.3     1  UNL1       -0.3511
     35 O          67.3489   93.6952   16.2615 O.3     1  UNL1       -0.4728
     36 C          68.7941   93.5625   15.8824 C.3     1  UNL1        0.2373
     37 C          69.2971   92.2845   15.2796 C.3     1  UNL1        0.1894
     38 O          69.7695   92.2616   13.8561 O.3     1  UNL1       -0.3471
     39 C          68.9755   91.5311   12.8140 C.3     1  UNL1        0.1743
@<TRIPOS>BOND
     1    33    34    1
     2    34    32    1
     3    32    31    1
     4    31    30    1
     5    30    24    1
     6    24    25   ar
     7    25    26   ar
     8    26    23    1
     9    23     1    1
    10     1     2   am
    11     2     3    2
    12     4     2    1
    13     4     5    1
    14     5     6    1
    15     6     7    1
    16     7     8    1
    17     9     8    1
    18     9    10    1
    19    10    11    1
    20    11    12    2
    21    11    13    1
    22    13    14   ar
    23    14    15   ar
    24    15    16   ar
    25    16    17   ar
    26    17    18   ar
    27     1    20    1
    28    20    21    1
    29    21    22    1
    30    26    27   ar
    31    27    28   ar
    32    28    35    1
    33    35    36    1
    34    36    37    1
    35    37    38    1
    36    38    39    1
    37    28    29   ar
    38    29    24   ar
    39     9     4    1
    40    18    13   ar
    41    22    20    1
    42    18     9    1
    43     6    19    1
@<TRIPOS>MOLECULE
*****
 39 43 0 0 0
SMALL
GASTEIGER

@<TRIPOS>ATOM
      1 N          62.5183   87.7950   12.9322 N.am    1  UNL1       -0.2769
      2 C          62.2313   89.2580   13.0972 C.2     1  UNL1        0.2305
      3 O          61.1096   89.8934   12.3305 O.2     1  UNL1       -0.2747
      4 C          63.0661   90.0855   14.0291 C.3     1  UNL1        0.1329
      5 C          62.9455   89.8966   15.5122 C.3     1  UNL1        0.0816
      6 N          63.7803   90.7241   16.4440 N.3     1  UNL1       -0.2968
      7 C          64.7357   91.7406   15.8927 C.3     1  UNL1        0.0726
      8 C          64.8563   91.9295   14.4096 C.3     1  UNL1        0.0620
      9 C          64.0216   91.1020   13.4778 C.3     1  UNL1        0.1657
     10 O          63.2562   90.3517   12.4282 O.3     1  UNL1       -0.4479
     11 C          63.6903   90.8604   11.0855 C.2     1  UNL1        0.3411
     12 O          63.1804   90.3875    9.7566 O.2     1  UNL1       -0.2449
     13 C          64.7240   91.9251   11.3052 C.ar    1  UNL1        0.0749
     14 C          65.5052   92.7778   10.3500 C.ar    1  UNL1        0.0062
     15 C          66.4911   93.7799   10.8732 C.ar    1  UNL1        0.0002
     16 C          66.6958   93.9292   12.3517 C.ar    1  UNL1       -0.0002
     17 C          65.9146   93.0764   13.3069 C.ar    1  UNL1       -0.0007
     18 C          64.9286   92.0744   12.7837 C.ar    1  UNL1        0.0204
     19 H          64.3328   90.0727   17.0015 H       1  UNL1        0.1233
     20 C          63.6400   87.1595   13.6990 C.3     1  UNL1        0.0758
     21 C          64.3997   85.9343   14.1136 C.3     1  UNL1        0.0215
     22 C          64.8232   87.2840   14.6124 C.3     1  UNL1        0.0215
     23 C          61.6835   86.9674   12.0003 C.3     1  UNL1        0.1201
     24 C          63.0573   84.8888    8.9113 C.ar    1  UNL1       -0.0194
     25 C          62.4230   85.9886    9.7101 C.ar    1  UNL1       -0.0067
     26 C          62.3178   85.8676   11.2015 C.ar    1  UNL1        0.0004
     27 C          62.8469   84.6468   11.8941 C.ar    1  UNL1        0.0343
     28 C          63.4812   83.5470   11.0953 C.ar    1  UNL1        0.1381
     29 C          63.5864   83.6680    9.6039 C.ar    1  UNL1        0.0326
     30 C          63.1625   85.0098    7.4199 C.3     1  UNL1        0.0290
     31 C          61.9587   84.7607    6.5605 C.3     1  UNL1        0.0367
     32 C          60.5918   85.1226    7.0613 C.3     1  UNL1        0.1426
     33 C          58.8934   86.9148    7.8694 C.3     1  UNL1        0.1741
     34 O          60.2664   86.5499    7.3882 O.3     1  UNL1       -0.3511
     35 O          64.0103   82.3262   11.7880 O.3     1  UNL1       -0.4728
     36 C          63.0627   81.2696   12.2736 C.3     1  UNL1        0.2373
     37 C          62.7545   81.1538   13.7370 C.3     1  UNL1        0.1894
     38 O          63.3501   82.1295   14.7084 O.3     1  UNL1       -0.3471
     39 C          62.5129   83.2459   15.2584 C.3     1  UNL1        0.1743
@<TRIPOS>BOND
     1    33    34    1
     2    34    32    1
     3    32    31    1
     4    31    30    1
     5    30    24    1
     6    24    25   ar
     7    25    26   ar
     8    26    23    1
     9    23     1    1
    10     1     2   am
    11     2     3    2
    12     4     2    1
    13     4     5    1
    14     5     6    1
    15     6     7    1
    16     7     8    1
    17     9     8    1
    18     9    10    1
    19    10    11    1
    20    11    12    2
    21    11    13    1
    22    13    14   ar
    23    14    15   ar
    24    15    16   ar
    25    16    17   ar
    26    17    18   ar
    27     1    20    1
    28    20    21    1
    29    21    22    1
    30    26    27   ar
    31    27    28   ar
    32    28    35    1
    33    35    36    1
    34    36    37    1
    35    37    38    1
    36    38    39    1
    37    28    29   ar
    38    29    24   ar
    39     9     4    1
    40    18    13   ar
    41    22    20    1
    42    18     9    1
    43     6    19    1
@<TRIPOS>MOLECULE
*****
 39 43 0 0 0
SMALL
GASTEIGER

@<TRIPOS>ATOM
      1 N          62.5020   87.8222   12.9220 N.am    1  UNL1       -0.2769
      2 C          62.2277   89.2878   13.0860 C.2     1  UNL1        0.2305
      3 O          61.1150   89.9335   12.3148 O.2     1  UNL1       -0.2747
      4 C          63.0662   90.1076   14.0214 C.3     1  UNL1        0.1329
      5 C          62.9437   89.9139   15.5038 C.3     1  UNL1        0.0816
      6 N          63.7822   90.7337   16.4391 N.3     1  UNL1       -0.2968
      7 C          64.7431   91.7473   15.8920 C.3     1  UNL1        0.0726
      8 C          64.8656   91.9410   14.4096 C.3     1  UNL1        0.0620
      9 C          64.0271   91.1212   13.4744 C.3     1  UNL1        0.1657
     10 O          63.2586   90.3787   12.4216 O.3     1  UNL1       -0.4479
     11 C          63.6961   90.8901   11.0810 C.2     1  UNL1        0.3411
     12 O          63.1845   90.4246    9.7501 O.2     1  UNL1       -0.2449
     13 C          64.7350   91.9486   11.3052 C.ar    1  UNL1        0.0749
     14 C          65.5211   92.8008   10.3536 C.ar    1  UNL1        0.0062
     15 C          66.5119   93.7960   10.8810 C.ar    1  UNL1        0.0002
     16 C          66.7164   93.9388   12.3601 C.ar    1  UNL1       -0.0002
     17 C          65.9303   93.0866   13.3118 C.ar    1  UNL1       -0.0007
     18 C          64.9396   92.0915   12.7844 C.ar    1  UNL1        0.0204
     19 H          64.3310   90.0775   16.9945 H       1  UNL1        0.1233
     20 C          63.6147   87.1765   13.6934 C.3     1  UNL1        0.0758
     21 C          64.8076   87.2920   14.5954 C.3     1  UNL1        0.0215
     22 C          64.3491   85.9427   14.1273 C.3     1  UNL1        0.0215
     23 C          61.6635   87.0024   11.9867 C.3     1  UNL1        0.1201
     24 C          63.4451   83.5890   11.0250 C.ar    1  UNL1       -0.0194
     25 C          62.8124   84.6766   11.8415 C.ar    1  UNL1       -0.0067
     26 C          62.2962   85.9147   11.1702 C.ar    1  UNL1        0.0004
     27 C          62.4126   86.0652    9.6823 C.ar    1  UNL1        0.0343
     28 C          63.0453   84.9775    8.8657 C.ar    1  UNL1        0.1381
     29 C          63.5615   83.7395    9.5370 C.ar    1  UNL1        0.0326
     30 C          63.9613   82.3509   11.6962 C.3     1  UNL1        0.0290
     31 C          63.0395   81.1949   11.9488 C.3     1  UNL1        0.0367
     32 C          62.5771   80.8952   13.3439 C.3     1  UNL1        0.1426
     33 C          62.4281   82.9220   14.9623 C.3     1  UNL1        0.1741
     34 O          63.1259   81.6773   14.5002 O.3     1  UNL1       -0.3511
     35 O          63.1617   85.1280    7.3778 O.3     1  UNL1       -0.4728
     36 C          62.0533   84.6511    6.4868 C.3     1  UNL1        0.2373
     37 C          60.6371   85.0572    6.7686 C.3     1  UNL1        0.1894
     38 O          60.3420   86.4274    7.3031 O.3     1  UNL1       -0.3471
     39 C          58.9786   86.7444    7.8423 C.3     1  UNL1        0.1743
@<TRIPOS>BOND
     1    33    34    1
     2    34    32    1
     3    32    31    1
     4    31    30    1
     5    30    24    1
     6    24    25   ar
     7    25    26   ar
     8    26    23    1
     9    23     1    1
    10     1     2   am
    11     2     3    2
    12     4     2    1
    13     4     5    1
    14     5     6    1
    15     6     7    1
    16     7     8    1
    17     9     8    1
    18     9    10    1
    19    10    11    1
    20    11    12    2
    21    11    13    1
    22    13    14   ar
    23    14    15   ar
    24    15    16   ar
    25    16    17   ar
    26    17    18   ar
    27     1    20    1
    28    20    21    1
    29    21    22    1
    30    26    27   ar
    31    27    28   ar
    32    28    35    1
    33    35    36    1
    34    36    37    1
    35    37    38    1
    36    38    39    1
    37    28    29   ar
    38    29    24   ar
    39     9     4    1
    40    18    13   ar
    41    22    20    1
    42    18     9    1
    43     6    19    1
@<TRIPOS>MOLECULE
*****
 39 43 0 0 0
SMALL
GASTEIGER

@<TRIPOS>ATOM
      1 N          61.5545   88.4610   11.6753 N.am    1  UNL1       -0.2769
      2 C          62.9801   88.8617   11.9143 C.2     1  UNL1        0.2305
      3 O          63.9170   87.9202   12.6113 O.2     1  UNL1       -0.2747
      4 C          63.4688   90.2039   11.4563 C.3     1  UNL1        0.1329
      5 C          63.1210   90.7005   10.0843 C.3     1  UNL1        0.0816
      6 N          63.6097   92.0427    9.6263 N.3     1  UNL1       -0.2968
      7 C          64.4461   92.8882   10.5404 C.3     1  UNL1        0.0726
      8 C          64.7939   92.3916   11.9123 C.3     1  UNL1        0.0620
      9 C          64.3052   91.0494   12.3703 C.3     1  UNL1        0.1657
     10 O          63.8907   89.7356   12.9638 O.3     1  UNL1       -0.4479
     11 C          64.4579   89.6536   14.3500 C.2     1  UNL1        0.3411
     12 O          64.2896   88.5094   15.3051 O.2     1  UNL1       -0.2449
     13 C          65.2230   90.9167   14.6133 C.ar    1  UNL1        0.0749
     14 C          65.9933   91.3928   15.8090 C.ar    1  UNL1        0.0062
     15 C          66.6694   92.7315   15.7813 C.ar    1  UNL1        0.0002
     16 C          66.5750   93.5942   14.5578 C.ar    1  UNL1       -0.0002
     17 C          65.8046   93.1181   13.3620 C.ar    1  UNL1       -0.0007
     18 C          65.1286   91.7794   13.3897 C.ar    1  UNL1        0.0204
     19 H          62.7833   92.5923    9.3909 H       1  UNL1        0.1233
     20 C          60.6176   89.4025   10.9783 C.3     1  UNL1        0.0758
     21 C          59.6626   90.5582   11.0273 C.3     1  UNL1        0.0215
     22 C          59.9498   89.8775    9.7219 C.3     1  UNL1        0.0215
     23 C          61.0659   87.1188   12.1333 C.3     1  UNL1        0.1201
     24 C          62.9778   83.6568   12.4636 C.ar    1  UNL1       -0.0194
     25 C          62.2179   84.8970   12.8306 C.ar    1  UNL1       -0.0067
     26 C          61.8258   85.8787   11.7664 C.ar    1  UNL1        0.0004
     27 C          62.1935   85.6204   10.3353 C.ar    1  UNL1        0.0343
     28 C          62.9535   84.3802    9.9684 C.ar    1  UNL1        0.1381
     29 C          63.3456   83.3985   11.0325 C.ar    1  UNL1        0.0326
     30 C          63.3700   82.6751   13.5277 C.3     1  UNL1        0.0290
     31 C          63.3612   81.2047   13.2315 C.3     1  UNL1        0.0367
     32 C          62.1230   80.3962   13.4831 C.3     1  UNL1        0.1426
     33 C          59.6213   80.3553   14.1825 C.3     1  UNL1        0.1741
     34 O          60.9757   80.9973   14.2396 O.3     1  UNL1       -0.3511
     35 O          63.3212   84.1219    8.5372 O.3     1  UNL1       -0.4728
     36 C          62.8281   85.0403    7.4586 C.3     1  UNL1        0.2373
     37 C          61.7374   84.5912    6.5320 C.3     1  UNL1        0.1894
     38 O          60.3094   84.9410    6.8292 O.3     1  UNL1       -0.3471
     39 C          59.9908   86.1398    7.6727 C.3     1  UNL1        0.1743
@<TRIPOS>BOND
     1    33    34    1
     2    34    32    1
     3    32    31    1
     4    31    30    1
     5    30    24    1
     6    24    25   ar
     7    25    26   ar
     8    26    23    1
     9    23     1    1
    10     1     2   am
    11     2     3    2
    12     4     2    1
    13     4     5    1
    14     5     6    1
    15     6     7    1
    16     7     8    1
    17     9     8    1
    18     9    10    1
    19    10    11    1
    20    11    12    2
    21    11    13    1
    22    13    14   ar
    23    14    15   ar
    24    15    16   ar
    25    16    17   ar
    26    17    18   ar
    27     1    20    1
    28    20    21    1
    29    21    22    1
    30    26    27   ar
    31    27    28   ar
    32    28    35    1
    33    35    36    1
    34    36    37    1
    35    37    38    1
    36    38    39    1
    37    28    29   ar
    38    29    24   ar
    39     9     4    1
    40    18    13   ar
    41    22    20    1
    42    18     9    1
    43     6    19    1
@<TRIPOS>MOLECULE
*****
 39 43 0 0 0
SMALL
GASTEIGER

@<TRIPOS>ATOM
      1 N          63.5646   88.7858   15.9352 N.am    1  UNL1       -0.2769
      2 C          64.2389   88.2981   14.6873 C.2     1  UNL1        0.2305
      3 O          64.9088   89.2742   13.7662 O.2     1  UNL1       -0.2747
      4 C          64.2433   86.8341   14.3603 C.3     1  UNL1        0.1329
      5 C          64.9170   85.8617   15.2826 C.3     1  UNL1        0.0816
      6 N          64.9213   84.3978   14.9556 N.3     1  UNL1       -0.2968
      7 C          64.2520   83.9063   13.7064 C.3     1  UNL1        0.0726
      8 C          63.5784   84.8787   12.7842 C.3     1  UNL1        0.0620
      9 C          63.5741   86.3426   13.1111 C.3     1  UNL1        0.1657
     10 O          63.4887   87.8276   13.3052 O.3     1  UNL1       -0.4479
     11 C          62.7294   88.4036   12.1469 C.2     1  UNL1        0.3411
     12 O          62.4100   89.8538   11.9357 O.2     1  UNL1       -0.2449
     13 C          62.3455   87.2746   11.2369 C.ar    1  UNL1        0.0749
     14 C          61.5880   87.2419    9.9427 C.ar    1  UNL1        0.0062
     15 C          61.3525   85.9354    9.2442 C.ar    1  UNL1        0.0002
     16 C          61.8746   84.6617    9.8402 C.ar    1  UNL1       -0.0002
     17 C          62.6321   84.6944   11.1345 C.ar    1  UNL1       -0.0007
     18 C          62.8675   86.0008   11.8328 C.ar    1  UNL1        0.0204
     19 H          64.4728   83.9202   15.7374 H       1  UNL1        0.1233
     20 C          62.8947   87.8096   16.8563 C.3     1  UNL1        0.0758
     21 C          61.8326   86.7810   17.1092 C.3     1  UNL1        0.0215
     22 C          62.7966   87.1473   18.1985 C.3     1  UNL1        0.0215
     23 C          63.5602   90.2497   16.2622 C.3     1  UNL1        0.1201
     24 C          66.4244   92.8549   15.3907 C.ar    1  UNL1       -0.0194
     25 C          65.5562   91.9103   16.1677 C.ar    1  UNL1       -0.0067
     26 C          64.4285   91.1944   15.4851 C.ar    1  UNL1        0.0004
     27 C          64.1691   91.4231   14.0256 C.ar    1  UNL1        0.0343
     28 C          65.0373   92.3678   13.2486 C.ar    1  UNL1        0.1381
     29 C          66.1650   93.0837   13.9311 C.ar    1  UNL1        0.0326
     30 C          67.5521   93.5708   16.0732 C.3     1  UNL1        0.0290
     31 C          68.9107   92.9387   16.1396 C.3     1  UNL1        0.0367
     32 C          69.2942   91.8791   15.1496 C.3     1  UNL1        0.1426
     33 C          68.8918   91.4876   12.6130 C.3     1  UNL1        0.1741
     34 O          69.5588   92.2487   13.7202 O.3     1  UNL1       -0.3511
     35 O          64.7779   92.5965   11.7889 O.3     1  UNL1       -0.4728
     36 C          65.5795   93.6162   11.0355 C.3     1  UNL1        0.2373
     37 C          66.4832   93.1840    9.9190 C.3     1  UNL1        0.1894
     38 O          67.9686   93.3460   10.0510 O.3     1  UNL1       -0.3471
     39 C          68.8899   92.5742    9.1535 C.3     1  UNL1        0.1743
@<TRIPOS>BOND
     1    33    34    1
     2    34    32    1
     3    32    31    1
     4    31    30    1
     5    30    24    1
     6    24    25   ar
     7    25    26   ar
     8    26    23    1
     9    23     1    1
    10     1     2   am
    11     2     3    2
    12     4     2    1
    13     4     5    1
    14     5     6    1
    15     6     7    1
    16     7     8    1
    17     9     8    1
    18     9    10    1
    19    10    11    1
    20    11    12    2
    21    11    13    1
    22    13    14   ar
    23    14    15   ar
    24    15    16   ar
    25    16    17   ar
    26    17    18   ar
    27     1    20    1
    28    20    21    1
    29    21    22    1
    30    26    27   ar
    31    27    28   ar
    32    28    35    1
    33    35    36    1
    34    36    37    1
    35    37    38    1
    36    38    39    1
    37    28    29   ar
    38    29    24   ar
    39     9     4    1
    40    18    13   ar
    41    22    20    1
    42    18     9    1
    43     6    19    1
