@<TRIPOS>MOLECULE
*****
 38 41 0 0 0
SMALL
GASTEIGER

@<TRIPOS>ATOM
      1 C          63.0867   89.2794   13.5509 C.3     1  UNL1        0.1695
      2 C          62.0752   89.8671   12.6119 C.3     1  UNL1        0.1271
      3 N          61.3978   89.2180   11.4415 N.am    1  UNL1       -0.2553
      4 C          60.4251   90.0799   10.6925 C.2     1  UNL1        0.2299
      5 C          60.1842   91.4941   11.1307 C.3     1  UNL1        0.0952
      6 O          59.6932   89.5276    9.5053 O.2     1  UNL1       -0.2745
      7 C          61.5644   87.8211   10.9210 C.ar    1  UNL1        0.0676
      8 C          60.6950   87.5750    9.7237 C.ar    1  UNL1        0.0162
      9 C          60.7109   86.2361    9.0479 C.ar    1  UNL1        0.0014
     10 C          61.5961   85.1432    9.5693 C.ar    1  UNL1        0.0014
     11 C          62.4655   85.3892   10.7665 C.ar    1  UNL1        0.0162
     12 C          62.4497   86.7282   11.4424 C.ar    1  UNL1        0.0679
     13 N          63.3870   86.7623   12.6131 N.am    1  UNL1       -0.2517
     14 C          63.6705   87.8977   13.5515 C.2     1  UNL1        0.2493
     15 O          64.6698   87.6138   14.6334 O.2     1  UNL1       -0.2727
     16 C          64.6296   91.2208   14.3258 C.2     1  UNL1        0.2371
     17 O          65.1870   91.3318   12.9376 O.2     1  UNL1       -0.2737
     18 N          63.5795   90.1946   14.6324 N.am    1  UNL1       -0.2959
     19 H          63.2137   90.1217   15.5435 H       1  UNL1        0.1499
     20 C          65.1225   92.1359   15.4073 C.3     1  UNL1        0.1316
     21 C          64.6004   91.9930   16.8063 C.3     1  UNL1        0.0270
     22 C          67.4758   93.1763   15.7665 C.3     1  UNL1        0.0862
     23 N          66.1372   93.1939   15.0898 N.3     1  UNL1       -0.2902
     24 H          66.3137   93.1410   14.0866 H       1  UNL1        0.1237
     25 C          64.1404   85.4932   12.8807 C.3     1  UNL1        0.1278
     26 C          63.4139   84.2820   13.3862 C.ar    1  UNL1        0.0320
     27 C          62.7853   84.2987   14.7480 C.ar    1  UNL1        0.1363
     28 C          62.0588   83.0876   15.2536 C.ar    1  UNL1        0.0366
     29 C          61.9610   81.8599   14.3973 C.ar    1  UNL1        0.0031
     30 C          62.5897   81.8433   13.0354 C.ar    1  UNL1        0.0004
     31 C          62.4918   80.6156   12.1791 C.ar    1  UNL1        0.0067
     32 C          63.1204   80.5991   10.8173 C.ar    1  UNL1        0.0346
     33 BR         63.0226   79.3714    9.9610 Br      1  UNL1       -0.0490
     34 C          63.8469   81.8102   10.3118 C.ar    1  UNL1        0.0067
     35 C          63.9447   83.0378   11.1681 C.ar    1  UNL1        0.0003
     36 C          63.3161   83.0544   12.5299 C.ar    1  UNL1        0.0006
     37 O          62.8831   85.5263   15.6044 O.3     1  UNL1       -0.4717
     38 C          62.6864   85.7950   17.0669 C.3     1  UNL1        0.2525
@<TRIPOS>BOND
     1    22    23    1
     2    23    20    1
     3    20    21    1
     4    20    16    1
     5    16    17    2
     6    16    18   am
     7     1    18    1
     8     1     2    1
     9     2     3    1
    10     3     4   am
    11     4     5    1
    12     4     6    2
    13     3     7    1
    14     7     8   ar
    15     8     9   ar
    16     9    10   ar
    17    10    11   ar
    18    11    12   ar
    19    12    13    1
    20    13    25    1
    21    25    26    1
    22    26    27   ar
    23    27    37    1
    24    37    38    1
    25    27    28   ar
    26    28    29   ar
    27    29    30   ar
    28    30    31   ar
    29    31    32   ar
    30    32    33    1
    31    32    34   ar
    32    34    35   ar
    33    35    36   ar
    34    13    14   am
    35    14    15    2
    36    14     1    1
    37    12     7   ar
    38    36    26   ar
    39    36    30   ar
    40    23    24    1
    41    18    19    1
@<TRIPOS>MOLECULE
*****
 38 41 0 0 0
SMALL
GASTEIGER

@<TRIPOS>ATOM
      1 C          61.2562   88.8243    9.2330 C.3     1  UNL1        0.1695
      2 C          61.6886   87.4635    8.7733 C.3     1  UNL1        0.1271
      3 N          62.3431   86.3723    9.5675 N.am    1  UNL1       -0.2553
      4 C          62.6550   85.1147    8.8117 C.2     1  UNL1        0.2299
      5 C          62.3120   85.0104    7.3551 C.3     1  UNL1        0.0952
      6 O          63.3101   83.9614    9.5124 O.2     1  UNL1       -0.2745
      7 C          62.7269   86.3722   11.0176 C.ar    1  UNL1        0.0676
      8 C          63.3615   85.0729   11.4165 C.ar    1  UNL1        0.0162
      9 C          63.8201   84.8649   12.8294 C.ar    1  UNL1        0.0014
     10 C          63.6442   85.9562   13.8434 C.ar    1  UNL1        0.0014
     11 C          63.0096   87.2554   13.4445 C.ar    1  UNL1        0.0162
     12 C          62.5510   87.4635   12.0316 C.ar    1  UNL1        0.0679
     13 N          61.9478   88.8243   11.8459 N.am    1  UNL1       -0.2517
     14 C          61.3715   89.4299   10.6005 C.2     1  UNL1        0.2493
     15 O          60.8404   90.8256   10.7411 O.2     1  UNL1       -0.2727
     16 C          59.6207   89.1151    7.2354 C.2     1  UNL1        0.2371
     17 O          59.2475   87.6652    7.3299 O.2     1  UNL1       -0.2737
     18 N          60.6250   89.6946    8.1870 N.am    1  UNL1       -0.2959
     19 H          60.8699   90.6461    8.1250 H       1  UNL1        0.1499
     20 C          58.9895   89.9853    6.1894 C.3     1  UNL1        0.1316
     21 C          59.8507   90.7160    5.2021 C.3     1  UNL1        0.0270
     22 C          56.8707   91.0740    5.1523 C.3     1  UNL1        0.0862
     23 N          57.4972   90.1250    6.1305 N.3     1  UNL1       -0.2902
     24 H          57.1227   89.1991    5.9236 H       1  UNL1        0.1237
     25 C          61.9167   89.6945   13.0673 C.3     1  UNL1        0.1278
     26 C          63.1850   90.3050   13.5858 C.ar    1  UNL1        0.0320
     27 C          63.5801   90.1092   15.0195 C.ar    1  UNL1        0.1363
     28 C          64.8484   90.7197   15.5380 C.ar    1  UNL1        0.0366
     29 C          65.7215   91.5260   14.6228 C.ar    1  UNL1        0.0031
     30 C          65.3263   91.7217   13.1890 C.ar    1  UNL1        0.0004
     31 C          66.1994   92.5280   12.2738 C.ar    1  UNL1        0.0067
     32 C          65.8042   92.7238   10.8401 C.ar    1  UNL1        0.0346
     33 BR         66.6773   93.5301    9.9249 Br      1  UNL1       -0.0490
     34 C          64.5360   92.1133   10.3216 C.ar    1  UNL1        0.0067
     35 C          63.6629   91.3070   11.2369 C.ar    1  UNL1        0.0003
     36 C          64.0581   91.1113   12.6705 C.ar    1  UNL1        0.0006
     37 O          62.7071   89.3029   15.9347 O.3     1  UNL1       -0.4717
     38 C          62.9777   88.3145   17.0300 C.3     1  UNL1        0.2525
@<TRIPOS>BOND
     1    22    23    1
     2    23    20    1
     3    20    21    1
     4    20    16    1
     5    16    17    2
     6    16    18   am
     7     1    18    1
     8     1     2    1
     9     2     3    1
    10     3     4   am
    11     4     5    1
    12     4     6    2
    13     3     7    1
    14     7     8   ar
    15     8     9   ar
    16     9    10   ar
    17    10    11   ar
    18    11    12   ar
    19    12    13    1
    20    13    25    1
    21    25    26    1
    22    26    27   ar
    23    27    37    1
    24    37    38    1
    25    27    28   ar
    26    28    29   ar
    27    29    30   ar
    28    30    31   ar
    29    31    32   ar
    30    32    33    1
    31    32    34   ar
    32    34    35   ar
    33    35    36   ar
    34    13    14   am
    35    14    15    2
    36    14     1    1
    37    12     7   ar
    38    36    26   ar
    39    36    30   ar
    40    23    24    1
    41    18    19    1
@<TRIPOS>MOLECULE
*****
 38 41 0 0 0
SMALL
GASTEIGER

@<TRIPOS>ATOM
      1 C          62.4569   85.2324   12.0159 C.3     1  UNL1        0.1695
      2 C          61.6519   85.8159   10.8926 C.3     1  UNL1        0.1271
      3 N          61.5586   87.2474   10.4543 N.am    1  UNL1       -0.2553
      4 C          60.6576   87.5124    9.2847 C.2     1  UNL1        0.2299
      5 C          59.9209   86.3795    8.6335 C.3     1  UNL1        0.0952
      6 O          60.4931   88.9104    8.7662 O.2     1  UNL1       -0.2745
      7 C          62.2472   88.4489   11.0307 C.ar    1  UNL1        0.0676
      8 C          61.8765   89.7003   10.2913 C.ar    1  UNL1        0.0162
      9 C          62.4577   91.0184   10.7092 C.ar    1  UNL1        0.0014
     10 C          63.4097   91.0851   11.8665 C.ar    1  UNL1        0.0014
     11 C          63.7804   89.8338   12.6059 C.ar    1  UNL1        0.0162
     12 C          63.1992   88.5157   12.1880 C.ar    1  UNL1        0.0679
     13 N          63.6976   87.3974   13.0546 N.am    1  UNL1       -0.2517
     14 C          63.3674   85.9363   12.9781 C.2     1  UNL1        0.2493
     15 O          64.0358   85.0635   13.9985 O.2     1  UNL1       -0.2727
     16 C          63.2444   82.8221   11.4501 C.2     1  UNL1        0.2371
     17 O          64.2751   83.3788   10.5131 O.2     1  UNL1       -0.2737
     18 N          62.3353   83.7489   12.2015 N.am    1  UNL1       -0.2959
     19 H          61.6589   83.3836   12.8164 H       1  UNL1        0.1499
     20 C          63.1228   81.3386   11.6357 C.3     1  UNL1        0.1316
     21 C          63.0223   80.4389   10.4396 C.3     1  UNL1        0.0270
     22 C          61.8220   80.7238   13.7990 C.3     1  UNL1        0.0862
     23 N          63.1018   80.7548   13.0172 N.3     1  UNL1       -0.2902
     24 H          63.4193   79.7891   12.9337 H       1  UNL1        0.1237
     25 C          64.6528   87.7927   14.1416 C.3     1  UNL1        0.1278
     26 C          64.3098   88.9218   15.0675 C.ar    1  UNL1        0.0320
     27 C          63.2475   88.7398   16.1108 C.ar    1  UNL1        0.1363
     28 C          62.9044   89.8689   17.0368 C.ar    1  UNL1        0.0366
     29 C          63.6236   91.1800   16.9195 C.ar    1  UNL1        0.0031
     30 C          64.6859   91.3620   15.8762 C.ar    1  UNL1        0.0004
     31 C          65.4051   92.6731   15.7589 C.ar    1  UNL1        0.0067
     32 C          66.4674   92.8550   14.7156 C.ar    1  UNL1        0.0346
     33 BR         67.1866   94.1661   14.5983 Br      1  UNL1       -0.0490
     34 C          66.8105   91.7259   13.7896 C.ar    1  UNL1        0.0067
     35 C          66.0912   90.4149   13.9069 C.ar    1  UNL1        0.0003
     36 C          65.0290   90.2329   14.9502 C.ar    1  UNL1        0.0006
     37 O          62.5282   87.4287   16.2281 O.3     1  UNL1       -0.4717
     38 C          62.6224   86.2696   17.1755 C.3     1  UNL1        0.2525
@<TRIPOS>BOND
     1    22    23    1
     2    23    20    1
     3    20    21    1
     4    20    16    1
     5    16    17    2
     6    16    18   am
     7     1    18    1
     8     1     2    1
     9     2     3    1
    10     3     4   am
    11     4     5    1
    12     4     6    2
    13     3     7    1
    14     7     8   ar
    15     8     9   ar
    16     9    10   ar
    17    10    11   ar
    18    11    12   ar
    19    12    13    1
    20    13    25    1
    21    25    26    1
    22    26    27   ar
    23    27    37    1
    24    37    38    1
    25    27    28   ar
    26    28    29   ar
    27    29    30   ar
    28    30    31   ar
    29    31    32   ar
    30    32    33    1
    31    32    34   ar
    32    34    35   ar
    33    35    36   ar
    34    13    14   am
    35    14    15    2
    36    14     1    1
    37    12     7   ar
    38    36    26   ar
    39    36    30   ar
    40    23    24    1
    41    18    19    1
@<TRIPOS>MOLECULE
*****
 38 41 0 0 0
SMALL
GASTEIGER

@<TRIPOS>ATOM
      1 C          63.0859   86.1439   11.7576 C.3     1  UNL1        0.1695
      2 C          62.6080   85.6818   10.4129 C.3     1  UNL1        0.1271
      3 N          61.7580   86.4167    9.4193 N.am    1  UNL1       -0.2553
      4 C          61.4492   85.6751    8.1525 C.2     1  UNL1        0.2299
      5 C          61.9832   84.2885    7.9460 C.3     1  UNL1        0.0952
      6 O          60.6066   86.3199    7.0922 O.2     1  UNL1       -0.2745
      7 C          61.1759   87.7951    9.5247 C.ar    1  UNL1        0.0676
      8 C          60.3833   88.1503    8.3018 C.ar    1  UNL1        0.0162
      9 C          59.7149   89.4896    8.2042 C.ar    1  UNL1        0.0014
     10 C          59.8390   90.4736    9.3295 C.ar    1  UNL1        0.0014
     11 C          60.6316   90.1184   10.5524 C.ar    1  UNL1        0.0162
     12 C          61.3000   88.7791   10.6500 C.ar    1  UNL1        0.0679
     13 N          62.0370   88.6277   11.9477 N.am    1  UNL1       -0.2517
     14 C          62.8317   87.4549   12.4407 C.2     1  UNL1        0.2493
     15 O          63.4547   87.6143   13.7958 O.2     1  UNL1       -0.2727
     16 C          63.3329   84.3844   13.6531 C.2     1  UNL1        0.2371
     17 O          61.8929   84.5816   14.0239 O.2     1  UNL1       -0.2737
     18 N          63.9294   85.1655   12.5200 N.am    1  UNL1       -0.2959
     19 H          64.8745   85.0361   12.2767 H       1  UNL1        0.1499
     20 C          64.1765   83.4061   14.4156 C.3     1  UNL1        0.1316
     21 C          65.4966   83.8366   14.9830 C.3     1  UNL1        0.0270
     22 C          63.4083   81.1325   13.4201 C.3     1  UNL1        0.0862
     23 N          63.6999   81.9972   14.6106 N.3     1  UNL1       -0.2902
     24 H          64.4162   81.5168   15.1551 H       1  UNL1        0.1237
     25 C          61.9703   89.8047   12.8752 C.3     1  UNL1        0.1278
     26 C          63.2338   90.4077   13.4139 C.ar    1  UNL1        0.0320
     27 C          63.5985   90.2198   14.8567 C.ar    1  UNL1        0.1363
     28 C          64.8619   90.8227   15.3955 C.ar    1  UNL1        0.0366
     29 C          65.7605   91.6135   14.4915 C.ar    1  UNL1        0.0031
     30 C          65.3957   91.8014   13.0487 C.ar    1  UNL1        0.0004
     31 C          66.2943   92.5922   12.1447 C.ar    1  UNL1        0.0067
     32 C          65.9294   92.7800   10.7019 C.ar    1  UNL1        0.0346
     33 BR         66.8280   93.5708    9.7979 Br      1  UNL1       -0.0490
     34 C          64.6660   92.1771   10.1631 C.ar    1  UNL1        0.0067
     35 C          63.7675   91.3863   11.0672 C.ar    1  UNL1        0.0003
     36 C          64.1323   91.1985   12.5099 C.ar    1  UNL1        0.0006
     37 O          62.7000   89.4291   15.7608 O.3     1  UNL1       -0.4717
     38 C          62.9301   88.5795   16.9754 C.3     1  UNL1        0.2525
@<TRIPOS>BOND
     1    22    23    1
     2    23    20    1
     3    20    21    1
     4    20    16    1
     5    16    17    2
     6    16    18   am
     7     1    18    1
     8     1     2    1
     9     2     3    1
    10     3     4   am
    11     4     5    1
    12     4     6    2
    13     3     7    1
    14     7     8   ar
    15     8     9   ar
    16     9    10   ar
    17    10    11   ar
    18    11    12   ar
    19    12    13    1
    20    13    25    1
    21    25    26    1
    22    26    27   ar
    23    27    37    1
    24    37    38    1
    25    27    28   ar
    26    28    29   ar
    27    29    30   ar
    28    30    31   ar
    29    31    32   ar
    30    32    33    1
    31    32    34   ar
    32    34    35   ar
    33    35    36   ar
    34    13    14   am
    35    14    15    2
    36    14     1    1
    37    12     7   ar
    38    36    26   ar
    39    36    30   ar
    40    23    24    1
    41    18    19    1
@<TRIPOS>MOLECULE
*****
 38 41 0 0 0
SMALL
GASTEIGER

@<TRIPOS>ATOM
      1 C          62.4246   85.1581   13.9639 C.3     1  UNL1        0.1695
      2 C          62.6197   85.7744   15.3175 C.3     1  UNL1        0.1271
      3 N          62.9974   87.1859   15.6566 N.am    1  UNL1       -0.2553
      4 C          63.1147   87.4944   17.1199 C.2     1  UNL1        0.2299
      5 C          62.8593   86.4207   18.1357 C.3     1  UNL1        0.0952
      6 O          63.4875   88.8768   17.5674 O.2     1  UNL1       -0.2745
      7 C          63.2733   88.3297   14.7262 C.ar    1  UNL1        0.0676
      8 C          63.6190   89.5790   15.4809 C.ar    1  UNL1        0.0162
      9 C          63.9310   90.8430   14.7361 C.ar    1  UNL1        0.0014
     10 C          63.8973   90.8577   13.2366 C.ar    1  UNL1        0.0014
     11 C          63.5516   89.6084   12.4818 C.ar    1  UNL1        0.0162
     12 C          63.2396   88.3444   13.2267 C.ar    1  UNL1        0.0679
     13 N          62.9217   87.2190   12.2873 N.am    1  UNL1       -0.2517
     14 C          62.5590   85.8009   12.6153 C.2     1  UNL1        0.2493
     15 O          62.2959   84.9077   11.4394 O.2     1  UNL1       -0.2727
     16 C          63.0470   82.6711   13.5426 C.2     1  UNL1        0.2371
     17 O          64.4289   83.0864   13.1326 O.2     1  UNL1       -0.2737
     18 N          62.0449   83.7070   13.9582 N.am    1  UNL1       -0.2959
     19 H          61.1379   83.4344   14.2272 H       1  UNL1        0.1499
     20 C          62.6672   81.2200   13.5368 C.3     1  UNL1        0.1316
     21 C          63.2155   80.3054   12.4817 C.3     1  UNL1        0.0270
     22 C          60.2940   80.4493   14.2604 C.3     1  UNL1        0.0862
     23 N          61.7394   80.6834   14.5861 N.3     1  UNL1       -0.2902
     24 H          62.1222   79.7872   14.8873 H       1  UNL1        0.1237
     25 C          62.9734   87.5563   10.8266 C.3     1  UNL1        0.1278
     26 C          61.7405   87.4249    9.9823 C.ar    1  UNL1        0.0320
     27 C          60.5085   88.2080   10.3272 C.ar    1  UNL1        0.1363
     28 C          59.2756   88.0767    9.4831 C.ar    1  UNL1        0.0366
     29 C          59.2746   87.1622    8.2941 C.ar    1  UNL1        0.0031
     30 C          60.5066   86.3790    7.9492 C.ar    1  UNL1        0.0004
     31 C          60.5056   85.4645    6.7602 C.ar    1  UNL1        0.0067
     32 C          61.7376   84.6814    6.4154 C.ar    1  UNL1        0.0346
     33 BR         61.7366   83.7669    5.2264 Br      1  UNL1       -0.0490
     34 C          62.9706   84.8127    7.2596 C.ar    1  UNL1        0.0067
     35 C          62.9715   85.7273    8.4486 C.ar    1  UNL1        0.0003
     36 C          61.7396   86.5104    8.7934 C.ar    1  UNL1        0.0006
     37 O          60.5094   89.1226   11.5162 O.3     1  UNL1       -0.4717
     38 C          59.4317   89.7854   12.3218 C.3     1  UNL1        0.2525
@<TRIPOS>BOND
     1    22    23    1
     2    23    20    1
     3    20    21    1
     4    20    16    1
     5    16    17    2
     6    16    18   am
     7     1    18    1
     8     1     2    1
     9     2     3    1
    10     3     4   am
    11     4     5    1
    12     4     6    2
    13     3     7    1
    14     7     8   ar
    15     8     9   ar
    16     9    10   ar
    17    10    11   ar
    18    11    12   ar
    19    12    13    1
    20    13    25    1
    21    25    26    1
    22    26    27   ar
    23    27    37    1
    24    37    38    1
    25    27    28   ar
    26    28    29   ar
    27    29    30   ar
    28    30    31   ar
    29    31    32   ar
    30    32    33    1
    31    32    34   ar
    32    34    35   ar
    33    35    36   ar
    34    13    14   am
    35    14    15    2
    36    14     1    1
    37    12     7   ar
    38    36    26   ar
    39    36    30   ar
    40    23    24    1
    41    18    19    1
@<TRIPOS>MOLECULE
*****
 38 41 0 0 0
SMALL
GASTEIGER

@<TRIPOS>ATOM
      1 C          63.4344   88.9489   14.6595 C.3     1  UNL1        0.1695
      2 C          63.3152   87.8944   15.7196 C.3     1  UNL1        0.1271
      3 N          63.0913   86.4207   15.5517 N.am    1  UNL1       -0.2553
      4 C          63.0177   85.6249   16.8210 C.2     1  UNL1        0.2299
      5 C          63.1654   86.3116   18.1465 C.3     1  UNL1        0.0952
      6 O          62.7964   84.1423   16.7651 O.2     1  UNL1       -0.2745
      7 C          62.9314   85.6376   14.2824 C.ar    1  UNL1        0.0676
      8 C          62.7251   84.1782   14.5611 C.ar    1  UNL1        0.0162
      9 C          62.5433   83.2160   13.4249 C.ar    1  UNL1        0.0014
     10 C          62.5677   83.7132   12.0099 C.ar    1  UNL1        0.0014
     11 C          62.7739   85.1726   11.7311 C.ar    1  UNL1        0.0162
     12 C          62.9557   86.1347   12.8674 C.ar    1  UNL1        0.0679
     13 N          63.1461   87.5378   12.3723 N.am    1  UNL1       -0.2517
     14 C          63.3592   88.7903   13.1697 C.2     1  UNL1        0.2493
     15 O          63.5179   90.0506   12.3722 O.2     1  UNL1       -0.2727
     16 C          65.0354   90.9413   15.1255 C.2     1  UNL1        0.2371
     17 O          66.1883   90.1374   14.6014 O.2     1  UNL1       -0.2737
     18 N          63.6585   90.3470   15.1546 N.am    1  UNL1       -0.2959
     19 H          62.9018   90.8746   15.4986 H       1  UNL1        0.1499
     20 C          65.2594   92.3394   15.6206 C.3     1  UNL1        0.1316
     21 C          64.7160   92.7588   16.9544 C.3     1  UNL1        0.0270
     22 C          67.4910   93.5311   15.0291 C.3     1  UNL1        0.0862
     23 N          66.0269   93.3180   14.7821 N.3     1  UNL1       -0.2902
     24 H          65.9331   93.0128   13.8133 H       1  UNL1        0.1237
     25 C          63.1201   87.7114   10.8826 C.3     1  UNL1        0.1278
     26 C          61.8401   87.5111   10.1264 C.ar    1  UNL1        0.0320
     27 C          60.5957   88.2308   10.5546 C.ar    1  UNL1        0.1363
     28 C          59.3157   88.0306    9.7985 C.ar    1  UNL1        0.0366
     29 C          59.2803   87.1107    8.6141 C.ar    1  UNL1        0.0031
     30 C          60.5249   86.3911    8.1859 C.ar    1  UNL1        0.0004
     31 C          60.4895   85.4713    7.0016 C.ar    1  UNL1        0.0067
     32 C          61.7340   84.7517    6.5734 C.ar    1  UNL1        0.0346
     33 BR         61.6986   83.8319    5.3891 Br      1  UNL1       -0.0490
     34 C          63.0139   84.9519    7.3295 C.ar    1  UNL1        0.0067
     35 C          63.0492   85.8717    8.5139 C.ar    1  UNL1        0.0003
     36 C          61.8048   86.5913    8.9420 C.ar    1  UNL1        0.0006
     37 O          60.6310   89.1506   11.7389 O.3     1  UNL1       -0.4717
     38 C          59.5801   89.7401   12.6323 C.3     1  UNL1        0.2525
@<TRIPOS>BOND
     1    22    23    1
     2    23    20    1
     3    20    21    1
     4    20    16    1
     5    16    17    2
     6    16    18   am
     7     1    18    1
     8     1     2    1
     9     2     3    1
    10     3     4   am
    11     4     5    1
    12     4     6    2
    13     3     7    1
    14     7     8   ar
    15     8     9   ar
    16     9    10   ar
    17    10    11   ar
    18    11    12   ar
    19    12    13    1
    20    13    25    1
    21    25    26    1
    22    26    27   ar
    23    27    37    1
    24    37    38    1
    25    27    28   ar
    26    28    29   ar
    27    29    30   ar
    28    30    31   ar
    29    31    32   ar
    30    32    33    1
    31    32    34   ar
    32    34    35   ar
    33    35    36   ar
    34    13    14   am
    35    14    15    2
    36    14     1    1
    37    12     7   ar
    38    36    26   ar
    39    36    30   ar
    40    23    24    1
    41    18    19    1
@<TRIPOS>MOLECULE
*****
 38 41 0 0 0
SMALL
GASTEIGER

@<TRIPOS>ATOM
      1 C          61.8238   85.9208   10.7561 C.3     1  UNL1        0.1695
      2 C          62.5281   84.6995   11.2685 C.3     1  UNL1        0.1271
      3 N          63.4283   84.5706   12.4614 N.am    1  UNL1       -0.2553
      4 C          63.9836   83.2000   12.7124 C.2     1  UNL1        0.2299
      5 C          63.6276   82.0670   11.7960 C.3     1  UNL1        0.0952
      6 O          64.8950   82.9622   13.8799 O.2     1  UNL1       -0.2745
      7 C          63.8466   85.6309   13.4364 C.ar    1  UNL1        0.0676
      8 C          64.7607   85.0775   14.4891 C.ar    1  UNL1        0.0162
      9 C          65.2963   85.9753   15.5647 C.ar    1  UNL1        0.0014
     10 C          64.9177   87.4266   15.5877 C.ar    1  UNL1        0.0014
     11 C          64.0036   87.9800   14.5350 C.ar    1  UNL1        0.0162
     12 C          63.4681   87.0821   13.4594 C.ar    1  UNL1        0.0679
     13 N          62.5776   87.8315   12.5130 N.am    1  UNL1       -0.2517
     14 C          61.8458   87.3147   11.3099 C.2     1  UNL1        0.2493
     15 O          61.0281   88.3253   10.5617 O.2     1  UNL1       -0.2727
     16 C          61.6463   85.5102    8.1968 C.2     1  UNL1        0.2371
     17 O          63.1429   85.4973    8.0951 O.2     1  UNL1       -0.2737
     18 N          60.9868   85.7219    9.5273 N.am    1  UNL1       -0.2959
     19 H          60.0046   85.7304    9.5940 H       1  UNL1        0.1499
     20 C          60.8094   85.3113    6.9680 C.3     1  UNL1        0.1316
     21 C          61.3459   84.5143    5.8160 C.3     1  UNL1        0.0270
     22 C          59.1927   87.2977    7.4044 C.3     1  UNL1        0.0862
     23 N          59.4359   85.9094    6.8912 N.3     1  UNL1       -0.2902
     24 H          59.1690   85.9084    5.9067 H       1  UNL1        0.1237
     25 C          62.3948   89.2906   12.8088 C.3     1  UNL1        0.1278
     26 C          63.2303   90.3112   12.0944 C.ar    1  UNL1        0.0320
     27 C          62.8554   90.7514   10.7104 C.ar    1  UNL1        0.1363
     28 C          63.6909   91.7721    9.9959 C.ar    1  UNL1        0.0366
     29 C          64.9011   92.3524   10.6656 C.ar    1  UNL1        0.0031
     30 C          65.2760   91.9121   12.0497 C.ar    1  UNL1        0.0004
     31 C          66.4863   92.4925   12.7193 C.ar    1  UNL1        0.0067
     32 C          66.8610   92.0522   14.1034 C.ar    1  UNL1        0.0346
     33 BR         68.0713   92.6326   14.7731 Br      1  UNL1       -0.0490
     34 C          66.0256   91.0316   14.8179 C.ar    1  UNL1        0.0067
     35 C          64.8153   90.4513   14.1481 C.ar    1  UNL1        0.0003
     36 C          64.4405   90.8915   12.7642 C.ar    1  UNL1        0.0006
     37 O          61.6452   90.1711   10.0407 O.3     1  UNL1       -0.4717
     38 C          60.1795   90.4878   10.0808 C.3     1  UNL1        0.2525
@<TRIPOS>BOND
     1    22    23    1
     2    23    20    1
     3    20    21    1
     4    20    16    1
     5    16    17    2
     6    16    18   am
     7     1    18    1
     8     1     2    1
     9     2     3    1
    10     3     4   am
    11     4     5    1
    12     4     6    2
    13     3     7    1
    14     7     8   ar
    15     8     9   ar
    16     9    10   ar
    17    10    11   ar
    18    11    12   ar
    19    12    13    1
    20    13    25    1
    21    25    26    1
    22    26    27   ar
    23    27    37    1
    24    37    38    1
    25    27    28   ar
    26    28    29   ar
    27    29    30   ar
    28    30    31   ar
    29    31    32   ar
    30    32    33    1
    31    32    34   ar
    32    34    35   ar
    33    35    36   ar
    34    13    14   am
    35    14    15    2
    36    14     1    1
    37    12     7   ar
    38    36    26   ar
    39    36    30   ar
    40    23    24    1
    41    18    19    1
