@<TRIPOS>MOLECULE
*****
 31 33 0 0 0
SMALL
GASTEIGER

@<TRIPOS>ATOM
      1 S          63.8372   90.0520   13.5013 S.O2    1  UNL1        0.0455
      2 O          62.7056   90.6114   12.6911 O.2     1  UNL1       -0.1572
      3 O          64.9688   89.4926   14.3115 O.2     1  UNL1       -0.1572
      4 C          62.8164   85.9106   12.0673 C.3     1  UNL1        0.0032
      5 C          62.3866   87.1070   11.2713 C.3     1  UNL1        0.0192
      6 C          62.7269   88.4875   11.7493 C.3     1  UNL1        0.0954
      7 N          63.4969   88.6715   13.0233 N.3     1  UNL1       -0.1594
      8 C          63.9267   87.4750   13.8193 C.3     1  UNL1        0.0954
      9 C          63.5864   86.0946   13.3414 C.3     1  UNL1        0.0192
     10 C          62.4761   84.5300   11.5893 C.3     1  UNL1        0.0049
     11 C          63.4435   83.4034   11.8008 C.3     1  UNL1        0.0305
     12 C          62.6991   83.1505   14.9680 C.3     1  UNL1        0.0553
     13 C          62.6574   82.0395   13.9611 C.ar    1  UNL1        0.0966
     14 N          62.2662   80.6172   14.2332 N.ar    1  UNL1       -0.0821
     15 O          62.3665   79.8544   12.9455 O.2     1  UNL1       -0.3584
     16 C          62.8198   80.8053   11.8775 C.ar    1  UNL1        0.1504
     17 C          63.0525   80.4654   10.4352 C.3     1  UNL1        0.0750
     18 C          62.9995   82.1558   12.5053 C.ar    1  UNL1        0.0274
     19 C          64.1774   91.4325   13.9792 C.3     1  UNL1        0.1896
     20 C          65.3424   92.1663   13.3840 C.3     1  UNL1        0.1126
     21 C          64.5326   91.9160   12.1465 C.3     1  UNL1        0.0399
     22 C          65.0285   92.3979   10.8154 C.3     1  UNL1        0.0739
     23 N          66.3343   93.1302   10.7219 N.3     1  UNL1       -0.2714
     24 C          66.8302   93.6121    9.3908 C.3     1  UNL1        0.0896
     25 C          67.1441   93.3805   11.9594 C.3     1  UNL1        0.0739
     26 C          66.6482   92.8986   13.2905 C.3     1  UNL1        0.0399
     27 N          65.7477   92.1618   14.8283 N.am    1  UNL1       -0.1661
     28 O          64.7000   92.1257   15.9012 O.3     1  UNL1       -0.2915
     29 C          67.2006   92.1935   15.1996 C.2     1  UNL1        0.3268
     30 O          67.6059   92.1889   16.6439 O.2     1  UNL1       -0.2627
     31 H          63.8201   92.1083   15.4934 H       1  UNL1        0.2417
@<TRIPOS>BOND
     1    12    13    1
     2    13    14   ar
     3    14    15   ar
     4    15    16   ar
     5    16    17    1
     6    16    18   ar
     7    18    11    1
     8    11    10    1
     9    10     4    1
    10     4     5    1
    11     5     6    1
    12     6     7    1
    13     7     1    1
    14     1     2    2
    15     1     3    2
    16     1    19    1
    17    19    20    1
    18    20    27    1
    19    27    28    1
    20    27    29   am
    21    29    30    2
    22    20    21    1
    23    21    22    1
    24    22    23    1
    25    23    24    1
    26    23    25    1
    27    25    26    1
    28     7     8    1
    29     8     9    1
    30    18    13   ar
    31     9     4    1
    32    26    20    1
    33    28    31    1
@<TRIPOS>MOLECULE
*****
 31 33 0 0 0
SMALL
GASTEIGER

@<TRIPOS>ATOM
      1 S          61.9568   88.6311   11.0083 S.O2    1  UNL1        0.0455
      2 O          62.7900   88.3128    9.8023 O.2     1  UNL1       -0.1572
      3 O          61.1235   88.9494   12.2142 O.2     1  UNL1       -0.1572
      4 C          64.6760   92.0836   11.9756 C.3     1  UNL1        0.0032
      5 C          64.0991   91.9465   10.5978 C.3     1  UNL1        0.0192
      6 C          63.1927   90.7957   10.2754 C.3     1  UNL1        0.0954
      7 N          62.8632   89.7819   11.3308 N.3     1  UNL1       -0.1594
      8 C          63.4401   89.9190   12.7086 C.3     1  UNL1        0.0954
      9 C          64.3465   91.0698   13.0310 C.3     1  UNL1        0.0192
     10 C          65.5825   93.2344   12.2981 C.3     1  UNL1        0.0049
     11 C          66.9375   93.3233   11.6610 C.3     1  UNL1        0.0305
     12 C          65.9212   96.3917   11.2125 C.3     1  UNL1        0.0553
     13 C          66.6634   95.5539   10.2139 C.ar    1  UNL1        0.0966
     14 N          67.0687   95.9794    8.8338 N.ar    1  UNL1       -0.0821
     15 O          67.7863   94.8319    8.1870 O.2     1  UNL1       -0.3584
     16 C          67.8245   93.6972    9.1674 C.ar    1  UNL1        0.1504
     17 C          68.4474   92.3525    8.9357 C.3     1  UNL1        0.0750
     18 C          67.1305   94.1435   10.4200 C.ar    1  UNL1        0.0274
     19 C          61.0504   87.4803   10.6857 C.3     1  UNL1        0.1896
     20 C          61.6284   86.1216   10.4214 C.3     1  UNL1        0.1126
     21 C          62.1511   86.3620   11.8066 C.3     1  UNL1        0.0399
     22 C          63.0007   85.3241   12.4783 C.3     1  UNL1        0.0739
     23 N          63.3273   84.0458   11.7647 N.3     1  UNL1       -0.2714
     24 C          64.1768   83.0079   12.4364 C.3     1  UNL1        0.0896
     25 C          62.8045   83.8054   10.3795 C.3     1  UNL1        0.0739
     26 C          61.9551   84.8433    9.7079 C.3     1  UNL1        0.0399
     27 N          60.9048   86.3530    9.1280 N.am    1  UNL1       -0.1661
     28 O          61.5625   85.9997    7.8270 O.3     1  UNL1       -0.2915
     29 C          59.5235   86.9377    9.1356 C.2     1  UNL1        0.3268
     30 O          58.7999   87.1692    7.8422 O.2     1  UNL1       -0.2627
     31 H          62.4452   85.6363    7.9991 H       1  UNL1        0.2417
@<TRIPOS>BOND
     1    12    13    1
     2    13    14   ar
     3    14    15   ar
     4    15    16   ar
     5    16    17    1
     6    16    18   ar
     7    18    11    1
     8    11    10    1
     9    10     4    1
    10     4     5    1
    11     5     6    1
    12     6     7    1
    13     7     1    1
    14     1     2    2
    15     1     3    2
    16     1    19    1
    17    19    20    1
    18    20    27    1
    19    27    28    1
    20    27    29   am
    21    29    30    2
    22    20    21    1
    23    21    22    1
    24    22    23    1
    25    23    24    1
    26    23    25    1
    27    25    26    1
    28     7     8    1
    29     8     9    1
    30    18    13   ar
    31     9     4    1
    32    26    20    1
    33    28    31    1
@<TRIPOS>MOLECULE
*****
 31 33 0 0 0
SMALL
GASTEIGER

@<TRIPOS>ATOM
      1 S          61.9555   88.6173   11.0092 S.O2    1  UNL1        0.0455
      2 O          62.8029   88.2988    9.8132 O.2     1  UNL1       -0.1572
      3 O          61.1081   88.9358   12.2052 O.2     1  UNL1       -0.1572
      4 C          64.6728   92.0596   12.0175 C.3     1  UNL1        0.0032
      5 C          64.1000   91.9358   10.6368 C.3     1  UNL1        0.0192
      6 C          63.1943   90.7883   10.3007 C.3     1  UNL1        0.0954
      7 N          62.8613   89.7648   11.3454 N.3     1  UNL1       -0.1594
      8 C          63.4340   89.8886   12.7261 C.3     1  UNL1        0.0954
      9 C          64.3398   91.0360   13.0622 C.3     1  UNL1        0.0192
     10 C          65.5786   93.2071   12.3537 C.3     1  UNL1        0.0049
     11 C          66.9304   93.3084   11.7117 C.3     1  UNL1        0.0305
     12 C          68.4059   92.3144    8.9760 C.3     1  UNL1        0.0553
     13 C          67.7865   93.6614    9.2042 C.ar    1  UNL1        0.0966
     14 N          67.7366   94.7878    8.2150 N.ar    1  UNL1       -0.0821
     15 O          67.0274   95.9410    8.8611 O.2     1  UNL1       -0.3584
     16 C          66.6392   95.5271   10.2497 C.ar    1  UNL1        0.1504
     17 C          65.9098   96.3736   11.2505 C.3     1  UNL1        0.0750
     18 C          67.1083   94.1182   10.4617 C.ar    1  UNL1        0.0274
     19 C          61.0498   87.4699   10.6730 C.3     1  UNL1        0.1896
     20 C          61.6279   86.1127   10.4013 C.3     1  UNL1        0.1126
     21 C          62.1501   86.3454   11.7881 C.3     1  UNL1        0.0399
     22 C          62.9993   85.3037   12.4543 C.3     1  UNL1        0.0739
     23 N          63.3263   84.0295   11.7337 N.3     1  UNL1       -0.2714
     24 C          64.1755   82.9878   12.3999 C.3     1  UNL1        0.0896
     25 C          62.8041   83.7968   10.3469 C.3     1  UNL1        0.0739
     26 C          61.9549   84.8384    9.6808 C.3     1  UNL1        0.0399
     27 N          60.9049   86.3514    9.1089 N.am    1  UNL1       -0.1661
     28 O          61.5622   86.0032    7.8063 O.3     1  UNL1       -0.2915
     29 C          59.5245   86.9383    9.1191 C.2     1  UNL1        0.3268
     30 O          58.8015   87.1770    7.8267 O.2     1  UNL1       -0.2627
     31 H          62.4443   85.6376    7.9769 H       1  UNL1        0.2417
@<TRIPOS>BOND
     1    12    13    1
     2    13    14   ar
     3    14    15   ar
     4    15    16   ar
     5    16    17    1
     6    16    18   ar
     7    18    11    1
     8    11    10    1
     9    10     4    1
    10     4     5    1
    11     5     6    1
    12     6     7    1
    13     7     1    1
    14     1     2    2
    15     1     3    2
    16     1    19    1
    17    19    20    1
    18    20    27    1
    19    27    28    1
    20    27    29   am
    21    29    30    2
    22    20    21    1
    23    21    22    1
    24    22    23    1
    25    23    24    1
    26    23    25    1
    27    25    26    1
    28     7     8    1
    29     8     9    1
    30    18    13   ar
    31     9     4    1
    32    26    20    1
    33    28    31    1
@<TRIPOS>MOLECULE
*****
 31 33 0 0 0
SMALL
GASTEIGER

@<TRIPOS>ATOM
      1 S          62.6666   88.9167   11.6567 S.O2    1  UNL1        0.0455
      2 O          62.7806   89.0327   10.1656 O.2     1  UNL1       -0.1572
      3 O          62.5525   88.8007   13.1478 O.2     1  UNL1       -0.1572
      4 C          65.1513   92.6378   12.1360 C.3     1  UNL1        0.0032
      5 C          64.5231   92.3209   10.8113 C.3     1  UNL1        0.0192
      6 C          63.6949   91.0806   10.6515 C.3     1  UNL1        0.0954
      7 N          63.4948   90.1571   11.8165 N.3     1  UNL1       -0.1594
      8 C          64.1230   90.4740   13.1412 C.3     1  UNL1        0.0954
      9 C          64.9512   91.7143   13.3010 C.3     1  UNL1        0.0192
     10 C          65.9796   93.8782   12.2958 C.3     1  UNL1        0.0049
     11 C          67.2109   94.0705   11.4610 C.3     1  UNL1        0.0305
     12 C          65.6568   96.8031   10.5853 C.3     1  UNL1        0.0553
     13 C          66.3804   95.8665    9.6638 C.ar    1  UNL1        0.0966
     14 N          66.5167   96.0215    8.1781 N.ar    1  UNL1       -0.0821
     15 O          67.3153   94.8611    7.6623 O.2     1  UNL1       -0.3584
     16 C          67.6725   93.9890    8.8294 C.ar    1  UNL1        0.1504
     17 C          68.4679   92.7187    8.7699 C.3     1  UNL1        0.0750
     18 C          67.0947   94.6105   10.0663 C.ar    1  UNL1        0.0274
     19 C          61.8383   87.6764   11.4969 C.3     1  UNL1        0.1896
     20 C          61.0470   87.4596   10.2412 C.3     1  UNL1        0.1126
     21 C          62.1756   86.4997   10.0069 C.3     1  UNL1        0.0399
     22 C          62.2164   85.6825    8.7496 C.3     1  UNL1        0.0739
     23 N          61.1285   85.8253    7.7268 N.3     1  UNL1       -0.2714
     24 C          61.1693   85.0081    6.4696 C.3     1  UNL1        0.0896
     25 C          59.9999   86.7852    7.9611 C.3     1  UNL1        0.0739
     26 C          59.9592   87.6023    9.2183 C.3     1  UNL1        0.0399
     27 N          60.1933   88.4948   10.9116 N.am    1  UNL1       -0.1661
     28 O          59.5293   88.1862   12.2208 O.3     1  UNL1       -0.2915
     29 C          60.0035   89.8387   10.2728 C.2     1  UNL1        0.3268
     30 O          59.1497   90.8739   10.9433 O.2     1  UNL1       -0.2627
     31 H          59.7535   87.2822   12.4919 H       1  UNL1        0.2417
@<TRIPOS>BOND
     1    12    13    1
     2    13    14   ar
     3    14    15   ar
     4    15    16   ar
     5    16    17    1
     6    16    18   ar
     7    18    11    1
     8    11    10    1
     9    10     4    1
    10     4     5    1
    11     5     6    1
    12     6     7    1
    13     7     1    1
    14     1     2    2
    15     1     3    2
    16     1    19    1
    17    19    20    1
    18    20    27    1
    19    27    28    1
    20    27    29   am
    21    29    30    2
    22    20    21    1
    23    21    22    1
    24    22    23    1
    25    23    24    1
    26    23    25    1
    27    25    26    1
    28     7     8    1
    29     8     9    1
    30    18    13   ar
    31     9     4    1
    32    26    20    1
    33    28    31    1
@<TRIPOS>MOLECULE
*****
 31 33 0 0 0
SMALL
GASTEIGER

@<TRIPOS>ATOM
      1 S          63.7432   89.7642   13.8219 S.O2    1  UNL1        0.0455
      2 O          62.2718   90.0530   13.8621 O.2     1  UNL1       -0.1572
      3 O          65.2146   89.4754   13.7817 O.2     1  UNL1       -0.1572
      4 C          62.8963   85.6871   12.1160 C.3     1  UNL1        0.0032
      5 C          63.6727   85.8195   13.3926 C.3     1  UNL1        0.0192
      6 C          63.9550   87.1785   13.9612 C.3     1  UNL1        0.0954
      7 N          63.4609   88.4051   13.2532 N.3     1  UNL1       -0.1594
      8 C          62.6844   88.2728   11.9767 C.3     1  UNL1        0.0954
      9 C          62.4021   86.9138   11.4081 C.3     1  UNL1        0.0192
     10 C          62.6139   84.3280   11.5474 C.3     1  UNL1        0.0049
     11 C          63.5338   83.1825   11.8500 C.3     1  UNL1        0.0305
     12 C          62.8957   80.2350   10.6033 C.3     1  UNL1        0.0553
     13 C          62.7329   80.6392   12.0386 C.ar    1  UNL1        0.0966
     14 N          62.2483   79.7597   13.1528 N.ar    1  UNL1       -0.0821
     15 O          62.2421   80.5709   14.4146 O.2     1  UNL1       -0.3584
     16 C          62.7229   81.9519   14.0801 C.ar    1  UNL1        0.1504
     17 C          62.8738   83.0907   15.0446 C.3     1  UNL1        0.0750
     18 C          63.0262   81.9941   12.6116 C.ar    1  UNL1        0.0274
     19 C          64.0255   91.1232   14.3905 C.3     1  UNL1        0.1896
     20 C          65.1113   91.9727   13.7996 C.3     1  UNL1        0.1126
     21 C          64.3598   91.6069   12.5540 C.3     1  UNL1        0.0399
     22 C          64.8241   92.1153   11.2213 C.3     1  UNL1        0.0739
     23 N          66.0400   92.9894   11.1343 N.3     1  UNL1       -0.2714
     24 C          66.5043   93.4977    9.8016 C.3     1  UNL1        0.0896
     25 C          66.7915   93.3552   12.3798 C.3     1  UNL1        0.0739
     26 C          66.3271   92.8469   13.7124 C.3     1  UNL1        0.0399
     27 N          65.4857   92.0435   15.2504 N.am    1  UNL1       -0.1661
     28 O          66.9277   91.9727   15.6572 O.3     1  UNL1       -0.2915
     29 C          64.4180   92.1850   16.2944 C.2     1  UNL1        0.3268
     30 O          64.7924   92.2557   17.7452 O.2     1  UNL1       -0.2627
     31 H          67.4827   91.8828   14.8667 H       1  UNL1        0.2417
@<TRIPOS>BOND
     1    12    13    1
     2    13    14   ar
     3    14    15   ar
     4    15    16   ar
     5    16    17    1
     6    16    18   ar
     7    18    11    1
     8    11    10    1
     9    10     4    1
    10     4     5    1
    11     5     6    1
    12     6     7    1
    13     7     1    1
    14     1     2    2
    15     1     3    2
    16     1    19    1
    17    19    20    1
    18    20    27    1
    19    27    28    1
    20    27    29   am
    21    29    30    2
    22    20    21    1
    23    21    22    1
    24    22    23    1
    25    23    24    1
    26    23    25    1
    27    25    26    1
    28     7     8    1
    29     8     9    1
    30    18    13   ar
    31     9     4    1
    32    26    20    1
    33    28    31    1
@<TRIPOS>MOLECULE
*****
 31 33 0 0 0
SMALL
GASTEIGER

@<TRIPOS>ATOM
      1 S          62.2222   89.2168   11.5581 S.O2    1  UNL1        0.0455
      2 O          61.6677   89.4676   12.9291 O.2     1  UNL1       -0.1572
      3 O          62.7767   88.9661   10.1871 O.2     1  UNL1       -0.1572
      4 C          65.2848   92.4497   12.2058 C.3     1  UNL1        0.0032
      5 C          64.9747   91.4789   13.3064 C.3     1  UNL1        0.0192
      6 C          63.9539   90.4013   13.0905 C.3     1  UNL1        0.0954
      7 N          63.2431   90.2945   11.7740 N.3     1  UNL1       -0.1594
      8 C          63.5531   91.2652   10.6733 C.3     1  UNL1        0.0954
      9 C          64.5739   92.3428   10.8892 C.3     1  UNL1        0.0192
     10 C          66.3057   93.5273   12.4216 C.3     1  UNL1        0.0049
     11 C          66.3009   94.7499   11.5526 C.3     1  UNL1        0.0305
     12 C          65.6147   96.8480    9.1492 C.3     1  UNL1        0.0553
     13 C          66.4874   95.6333    9.0366 C.ar    1  UNL1        0.0966
     14 N          67.1980   95.1697    7.7996 N.ar    1  UNL1       -0.0821
     15 O          67.9526   93.9187    8.1398 O.2     1  UNL1       -0.3584
     16 C          67.7084   93.6092    9.5872 C.ar    1  UNL1        0.1504
     17 C          68.2709   92.4445   10.3468 C.3     1  UNL1        0.0750
     18 C          66.8029   94.6689   10.1413 C.ar    1  UNL1        0.0274
     19 C          61.2013   88.1393   11.3423 C.3     1  UNL1        0.1896
     20 C          60.8385   87.7180    9.9491 C.3     1  UNL1        0.1126
     21 C          60.3087   89.1213    9.9433 C.3     1  UNL1        0.0399
     22 C          59.6438   89.6668    8.7143 C.3     1  UNL1        0.0739
     23 N          59.5088   88.8090    7.4912 N.3     1  UNL1       -0.2714
     24 C          58.8439   89.3545    6.2622 C.3     1  UNL1        0.0896
     25 C          60.0385   87.4057    7.4971 C.3     1  UNL1        0.0739
     26 C          60.7034   86.8602    8.7261 C.3     1  UNL1        0.0399
     27 N          61.4943   86.4610   10.4389 N.am    1  UNL1       -0.1661
     28 O          61.2361   85.9749   11.8342 O.3     1  UNL1       -0.2915
     29 C          62.4084   85.6901    9.5332 C.2     1  UNL1        0.3268
     30 O          63.0642   84.4331   10.0230 O.2     1  UNL1       -0.2627
     31 H          60.6278   86.5839   12.2814 H       1  UNL1        0.2417
@<TRIPOS>BOND
     1    12    13    1
     2    13    14   ar
     3    14    15   ar
     4    15    16   ar
     5    16    17    1
     6    16    18   ar
     7    18    11    1
     8    11    10    1
     9    10     4    1
    10     4     5    1
    11     5     6    1
    12     6     7    1
    13     7     1    1
    14     1     2    2
    15     1     3    2
    16     1    19    1
    17    19    20    1
    18    20    27    1
    19    27    28    1
    20    27    29   am
    21    29    30    2
    22    20    21    1
    23    21    22    1
    24    22    23    1
    25    23    24    1
    26    23    25    1
    27    25    26    1
    28     7     8    1
    29     8     9    1
    30    18    13   ar
    31     9     4    1
    32    26    20    1
    33    28    31    1
@<TRIPOS>MOLECULE
*****
 31 33 0 0 0
SMALL
GASTEIGER

@<TRIPOS>ATOM
      1 S          62.9043   86.7901   12.1965 S.O2    1  UNL1        0.0455
      2 O          63.0611   85.9292   13.4148 O.2     1  UNL1       -0.1572
      3 O          62.7475   87.6510   10.9782 O.2     1  UNL1       -0.1572
      4 C          64.4043   90.3436   14.5145 C.3     1  UNL1        0.0032
      5 C          63.6429   90.5477   13.2383 C.3     1  UNL1        0.0192
      6 C          63.1429   89.3632   12.4657 C.3     1  UNL1        0.0954
      7 N          63.4044   87.9746   12.9692 N.3     1  UNL1       -0.1594
      8 C          64.1657   87.7705   14.2454 C.3     1  UNL1        0.0954
      9 C          64.6657   88.9550   15.0180 C.3     1  UNL1        0.0192
     10 C          64.9043   91.5281   15.2872 C.3     1  UNL1        0.0049
     11 C          65.6163   92.6408   14.5767 C.3     1  UNL1        0.0305
     12 C          68.5385   92.1338   15.9379 C.3     1  UNL1        0.0553
     13 C          68.2382   92.1319   14.4683 C.ar    1  UNL1        0.0966
     14 N          69.2284   91.8967   13.3664 N.ar    1  UNL1       -0.0821
     15 O          68.4971   91.9844   12.0596 O.2     1  UNL1       -0.3584
     16 C          67.0550   92.2738   12.3539 C.ar    1  UNL1        0.1504
     17 C          65.9644   92.4424   11.3380 C.3     1  UNL1        0.0750
     18 C          66.8950   92.3650   13.8426 C.ar    1  UNL1        0.0274
     19 C          62.4043   85.6056   11.4239 C.3     1  UNL1        0.1896
     20 C          61.9280   85.7779   10.0120 C.3     1  UNL1        0.1126
     21 C          60.9664   86.6828   10.7236 C.3     1  UNL1        0.0399
     22 C          59.9198   87.4250    9.9464 C.3     1  UNL1        0.0739
     23 N          59.8350   87.2621    8.4577 N.3     1  UNL1       -0.2714
     24 C          58.7884   88.0043    7.6805 C.3     1  UNL1        0.0896
     25 C          60.7966   86.3572    7.7461 C.3     1  UNL1        0.0739
     26 C          61.8431   85.6151    8.5233 C.3     1  UNL1        0.0399
     27 N          63.0551   84.8131    9.7908 N.am    1  UNL1       -0.1661
     28 O          63.8304   84.8470    8.5072 O.3     1  UNL1       -0.2915
     29 C          63.4068   83.8144   10.8533 C.2     1  UNL1        0.3268
     30 O          64.5339   82.8496   10.6321 O.2     1  UNL1       -0.2627
     31 H          63.4770   85.5455    7.9343 H       1  UNL1        0.2417
@<TRIPOS>BOND
     1    12    13    1
     2    13    14   ar
     3    14    15   ar
     4    15    16   ar
     5    16    17    1
     6    16    18   ar
     7    18    11    1
     8    11    10    1
     9    10     4    1
    10     4     5    1
    11     5     6    1
    12     6     7    1
    13     7     1    1
    14     1     2    2
    15     1     3    2
    16     1    19    1
    17    19    20    1
    18    20    27    1
    19    27    28    1
    20    27    29   am
    21    29    30    2
    22    20    21    1
    23    21    22    1
    24    22    23    1
    25    23    24    1
    26    23    25    1
    27    25    26    1
    28     7     8    1
    29     8     9    1
    30    18    13   ar
    31     9     4    1
    32    26    20    1
    33    28    31    1
@<TRIPOS>MOLECULE
*****
 31 33 0 0 0
SMALL
GASTEIGER

@<TRIPOS>ATOM
      1 S          63.3712   84.8886   14.2854 S.O2    1  UNL1        0.0455
      2 O          61.9299   84.8629   14.6999 O.2     1  UNL1       -0.1572
      3 O          64.8125   84.9144   13.8709 O.2     1  UNL1       -0.1572
      4 C          63.7854   89.0350   15.9842 C.3     1  UNL1        0.0032
      5 C          63.1728   87.9436   16.8109 C.3     1  UNL1        0.0192
      6 C          63.0347   86.5615   16.2446 C.3     1  UNL1        0.0954
      7 N          63.5093   86.2708   14.8516 N.3     1  UNL1       -0.1594
      8 C          64.1219   87.3623   14.0249 C.3     1  UNL1        0.0954
      9 C          64.2600   88.7443   14.5912 C.3     1  UNL1        0.0192
     10 C          63.9235   90.4172   16.5504 C.3     1  UNL1        0.0049
     11 C          63.9057   91.6070   15.6373 C.3     1  UNL1        0.0305
     12 C          63.7845   91.2499   12.3958 C.3     1  UNL1        0.0553
     13 C          64.9835   91.6722   13.1920 C.ar    1  UNL1        0.0966
     14 N          66.3373   92.0045   12.6381 N.ar    1  UNL1       -0.0821
     15 O          67.2297   92.3741   13.7857 O.2     1  UNL1       -0.3584
     16 C          66.4274   92.2702   15.0490 C.ar    1  UNL1        0.1504
     17 C          66.9259   92.5508   16.4356 C.3     1  UNL1        0.0750
     18 C          65.0392   91.8364   14.6819 C.ar    1  UNL1        0.0274
     19 C          63.2330   83.5065   13.7192 C.3     1  UNL1        0.1896
     20 C          63.5269   83.2571   12.2695 C.3     1  UNL1        0.1126
     21 C          62.8319   84.5827   12.1701 C.3     1  UNL1        0.0399
     22 C          62.6367   85.2285   10.8304 C.3     1  UNL1        0.0739
     23 N          63.1365   84.5487    9.5902 N.3     1  UNL1       -0.2714
     24 C          62.9413   85.1946    8.2504 C.3     1  UNL1        0.0896
     25 C          63.8314   83.2231    9.6896 C.3     1  UNL1        0.0739
     26 C          64.0265   82.5774   11.0293 C.3     1  UNL1        0.0399
     27 N          64.1197   82.0181   12.8724 N.am    1  UNL1       -0.1661
     28 O          65.5187   81.6077   12.5196 O.3     1  UNL1       -0.2915
     29 C          63.3136   81.1895   13.8283 C.2     1  UNL1        0.3268
     30 O          63.9064   79.9506   14.4312 O.2     1  UNL1       -0.2627
     31 H          65.8953   82.2470   11.8948 H       1  UNL1        0.2417
@<TRIPOS>BOND
     1    12    13    1
     2    13    14   ar
     3    14    15   ar
     4    15    16   ar
     5    16    17    1
     6    16    18   ar
     7    18    11    1
     8    11    10    1
     9    10     4    1
    10     4     5    1
    11     5     6    1
    12     6     7    1
    13     7     1    1
    14     1     2    2
    15     1     3    2
    16     1    19    1
    17    19    20    1
    18    20    27    1
    19    27    28    1
    20    27    29   am
    21    29    30    2
    22    20    21    1
    23    21    22    1
    24    22    23    1
    25    23    24    1
    26    23    25    1
    27    25    26    1
    28     7     8    1
    29     8     9    1
    30    18    13   ar
    31     9     4    1
    32    26    20    1
    33    28    31    1
@<TRIPOS>MOLECULE
*****
 31 33 0 0 0
SMALL
GASTEIGER

@<TRIPOS>ATOM
      1 S          62.9690   86.5557   12.8652 S.O2    1  UNL1        0.0455
      2 O          61.9671   87.1592   11.9261 O.2     1  UNL1       -0.1572
      3 O          63.9710   85.9521   13.8042 O.2     1  UNL1       -0.1572
      4 C          64.4475   90.6698   13.9318 C.3     1  UNL1        0.0032
      5 C          63.6533   90.4603   12.6766 C.3     1  UNL1        0.0192
      6 C          63.1606   89.0889   12.3211 C.3     1  UNL1        0.0954
      7 N          63.4619   87.9271   13.2207 N.3     1  UNL1       -0.1594
      8 C          64.2560   88.1366   14.4759 C.3     1  UNL1        0.0954
      9 C          64.7488   89.5080   14.8314 C.3     1  UNL1        0.0192
     10 C          64.9403   92.0413   14.2873 C.3     1  UNL1        0.0049
     11 C          65.5803   92.9032   13.2398 C.3     1  UNL1        0.0305
     12 C          66.3313   93.0582   10.0678 C.3     1  UNL1        0.0553
     13 C          67.2276   92.5604   11.1627 C.ar    1  UNL1        0.0966
     14 N          68.6264   92.0465   10.9919 N.ar    1  UNL1       -0.0821
     15 O          69.1458   91.6577   12.3444 O.2     1  UNL1       -0.3584
     16 C          68.0679   91.9313   13.3511 C.ar    1  UNL1        0.1504
     17 C          68.1594   91.6894   14.8286 C.3     1  UNL1        0.0750
     18 C          66.8824   92.4892   12.6207 C.ar    1  UNL1        0.0274
     19 C          62.4762   85.1843   12.5096 C.3     1  UNL1        0.1896
     20 C          63.0045   84.4906   11.2891 C.3     1  UNL1        0.1126
     21 C          62.2205   85.5940   10.6427 C.3     1  UNL1        0.0399
     22 C          62.1733   85.7041    9.1474 C.3     1  UNL1        0.0739
     23 N          62.9102   84.7108    8.2987 N.3     1  UNL1       -0.2714
     24 C          62.8630   84.8209    6.8035 C.3     1  UNL1        0.0896
     25 C          63.6942   83.6074    8.9451 C.3     1  UNL1        0.0739
     26 C          63.7413   83.4973   10.4403 C.3     1  UNL1        0.0399
     27 N          63.6050   83.6281   12.3594 N.am    1  UNL1       -0.1661
     28 O          65.0894   83.6247   12.5750 O.3     1  UNL1       -0.2915
     29 C          62.7210   82.7690   13.2141 C.2     1  UNL1        0.3268
     30 O          63.3215   81.9065   14.2844 O.2     1  UNL1       -0.2627
     31 H          65.5092   84.2300   11.9439 H       1  UNL1        0.2417
@<TRIPOS>BOND
     1    12    13    1
     2    13    14   ar
     3    14    15   ar
     4    15    16   ar
     5    16    17    1
     6    16    18   ar
     7    18    11    1
     8    11    10    1
     9    10     4    1
    10     4     5    1
    11     5     6    1
    12     6     7    1
    13     7     1    1
    14     1     2    2
    15     1     3    2
    16     1    19    1
    17    19    20    1
    18    20    27    1
    19    27    28    1
    20    27    29   am
    21    29    30    2
    22    20    21    1
    23    21    22    1
    24    22    23    1
    25    23    24    1
    26    23    25    1
    27    25    26    1
    28     7     8    1
    29     8     9    1
    30    18    13   ar
    31     9     4    1
    32    26    20    1
    33    28    31    1
