@<TRIPOS>MOLECULE
*****
 43 45 0 0 0
SMALL
GASTEIGER

@<TRIPOS>ATOM
      1 C          61.8847   86.1732    9.9233 C.3     1  UNL1        0.0920
      2 C          60.7637   86.0386    8.9356 C.3     1  UNL1        0.2582
      3 S          59.8043   87.1734    8.7308 S.O     1  UNL1        0.0319
      4 O          58.6834   87.0388    7.7432 O.co2   1  UNL1       -0.6812
      5 C          59.9659   88.4427    9.5136 C.3     1  UNL1        0.2736
      6 C          61.0868   88.5772   10.5012 C.3     1  UNL1        0.1416
      7 C          62.0462   87.4425   10.7061 C.3     1  UNL1        0.1353
      8 O          63.1672   87.5771   11.6937 O.3     1  UNL1       -0.3827
      9 H          63.1279   88.4523   12.1100 H       1  UNL1        0.2104
     10 N          61.2484   89.8466   11.2841 N.3     1  UNL1       -0.2886
     11 H          61.6841   89.5923   12.1706 H       1  UNL1        0.1237
     12 C          62.0501   90.9805   10.7171 C.3     1  UNL1        0.0980
     13 C          63.3531   91.3683   11.3508 C.ar    1  UNL1        0.0208
     14 C          64.3432   92.1946   10.5847 C.ar    1  UNL1       -0.0050
     15 C          65.6462   92.5825   11.2185 C.ar    1  UNL1       -0.0229
     16 C          65.9592   92.1440   12.6185 C.ar    1  UNL1       -0.0020
     17 C          64.9691   91.3177   13.3846 C.ar    1  UNL1        0.0290
     18 C          63.6660   90.9298   12.7507 C.ar    1  UNL1        0.1374
     19 F          62.6760   90.1035   13.5168 F       1  UNL1       -0.2045
     20 C          66.6363   93.4088   10.4524 C.3     1  UNL1        0.0189
     21 C          65.7329   94.6004   10.5701 C.3     1  UNL1        0.0044
     22 C          67.5397   92.2172   10.3346 C.3     1  UNL1        0.0044
     23 C          67.6264   94.2351    9.6862 C.3     1  UNL1        0.0044
     24 C          62.8440   85.0385   10.1281 C.3     1  UNL1        0.0342
     25 C          62.4161   83.8714   13.8971 C.ar    1  UNL1        0.1535
     26 C          62.5485   84.7574   12.6940 C.ar    1  UNL1        0.0341
     27 C          62.7117   84.1523   11.3312 C.ar    1  UNL1       -0.0166
     28 C          62.7426   82.6612   11.1714 C.ar    1  UNL1        0.0268
     29 C          62.6102   81.7752   12.3745 C.ar    1  UNL1        0.1556
     30 F          62.6411   80.2840   12.2148 F       1  UNL1       -0.2028
     31 C          62.4470   82.3802   13.7373 C.ar    1  UNL1        0.1037
     32 N          62.3147   81.4941   14.9404 N.pl3   1  UNL1       -0.3529
     33 H          62.3350   80.5154   14.8355 H       1  UNL1        0.1425
     34 H          62.2076   81.8912   15.8348 H       1  UNL1        0.1425
     35 O          62.2529   84.4764   15.2599 O.3     1  UNL1       -0.4665
     36 C          63.3467   85.3228   15.8406 C.3     1  UNL1        0.2891
     37 C          64.7133   85.3104   15.2221 C.3     1  UNL1        0.4366
     38 F          66.0797   85.2980   14.6036 F       1  UNL1       -0.1663
     39 F          64.8694   83.8661   15.5959 F       1  UNL1       -0.1663
     40 F          64.5572   86.7546   14.8483 F       1  UNL1       -0.1663
     41 C          63.0740   86.1816   17.0397 C.3     1  UNL1        0.1945
     42 C          63.0851   88.7761   16.9019 C.3     1  UNL1        0.1743
     43 O          62.3348   87.4774   16.8818 O.3     1  UNL1       -0.3469
@<TRIPOS>UNITY_ATOM_ATTR
3 1
charge 1
4 1
charge -1
@<TRIPOS>BOND
     1    42    43    1
     2    43    41    1
     3    36    41    1
     4    36    35    1
     5    35    25    1
     6    25    26   ar
     7    26    27   ar
     8    27    24    1
     9     1    24    1
    10     1     2    1
    11     2     3    1
    12     3     4    2
    13     3     5    1
    14     5     6    1
    15     6    10    1
    16    10    12    1
    17    12    13    1
    18    13    14   ar
    19    14    15   ar
    20    15    20    1
    21    20    21    1
    22    20    22    1
    23    20    23    1
    24    15    16   ar
    25    16    17   ar
    26    17    18   ar
    27    18    19    1
    28     6     7    1
    29     7     8    1
    30    27    28   ar
    31    28    29   ar
    32    29    30    1
    33    29    31   ar
    34    31    32    1
    35    36    37    1
    36    37    38    1
    37    37    39    1
    38    37    40    1
    39    31    25   ar
    40     7     1    1
    41    18    13   ar
    42    10    11    1
    43     8     9    1
    44    32    33    1
    45    32    34    1
@<TRIPOS>MOLECULE
*****
 43 45 0 0 0
SMALL
GASTEIGER

@<TRIPOS>ATOM
      1 C          61.3979   89.4437   10.6091 C.3     1  UNL1        0.0920
      2 C          60.3850   89.7223    9.5384 C.3     1  UNL1        0.2582
      3 S          60.1026   88.6909    8.4865 S.O     1  UNL1        0.0319
      4 O          59.0898   88.9694    7.4158 O.co2   1  UNL1       -0.6812
      5 C          60.8332   87.3809    8.5054 C.3     1  UNL1        0.2736
      6 C          61.8461   87.1024    9.5761 C.3     1  UNL1        0.1416
      7 C          62.1284   88.1338   10.6280 C.3     1  UNL1        0.1353
      8 O          63.1413   87.8553   11.6988 O.3     1  UNL1       -0.3827
      9 H          63.5174   86.9711   11.5660 H       1  UNL1        0.2104
     10 N          62.5766   85.7924    9.5951 N.3     1  UNL1       -0.2886
     11 H          63.5151   85.9836    9.9460 H       1  UNL1        0.1237
     12 C          62.0392   84.6455   10.3986 C.3     1  UNL1        0.0980
     13 C          62.7962   84.1472   11.5938 C.ar    1  UNL1        0.0208
     14 C          62.7747   84.9281   12.8743 C.ar    1  UNL1       -0.0050
     15 C          63.5317   84.4298   14.0695 C.ar    1  UNL1       -0.0229
     16 C          64.3104   83.1505   13.9842 C.ar    1  UNL1       -0.0020
     17 C          64.3320   82.3696   12.7037 C.ar    1  UNL1        0.0290
     18 C          63.5749   82.8680   11.5085 C.ar    1  UNL1        0.1374
     19 F          63.5964   82.0871   10.2279 F       1  UNL1       -0.2045
     20 C          63.5102   85.2107   15.3500 C.3     1  UNL1        0.0189
     21 C          62.3882   84.3525   15.8545 C.3     1  UNL1        0.0044
     22 C          64.6322   86.0690   14.8455 C.3     1  UNL1        0.0044
     23 C          63.4886   85.9916   16.6305 C.3     1  UNL1        0.0044
     24 C          61.6802   90.4752   11.6610 C.3     1  UNL1        0.0342
     25 C          65.1969   91.3193   13.2953 C.ar    1  UNL1        0.1535
     26 C          63.8057   90.7856   13.1225 C.ar    1  UNL1        0.0341
     27 C          63.0714   91.0089   11.8337 C.ar    1  UNL1       -0.0166
     28 C          63.7282   91.7659   10.7177 C.ar    1  UNL1        0.0268
     29 C          65.1194   92.2996   10.8905 C.ar    1  UNL1        0.1556
     30 F          65.7762   93.0566    9.7744 F       1  UNL1       -0.2028
     31 C          65.8537   92.0763   12.1793 C.ar    1  UNL1        0.1037
     32 N          67.2449   92.6101   12.3520 N.pl3   1  UNL1       -0.3529
     33 H          67.6760   93.1069   11.6195 H       1  UNL1        0.1425
     34 H          67.7268   92.4635   13.1978 H       1  UNL1        0.1425
     35 O          65.9312   91.0961   14.5840 O.3     1  UNL1       -0.4665
     36 C          65.9565   92.1719   15.6289 C.3     1  UNL1        0.2891
     37 C          67.1298   93.1021   15.7195 C.3     1  UNL1        0.4366
     38 F          68.3030   94.0323   15.8100 F       1  UNL1       -0.1663
     39 F          67.8163   92.1458   16.6490 F       1  UNL1       -0.1663
     40 F          66.4432   94.0585   14.7899 F       1  UNL1       -0.1663
     41 C          64.8085   92.3176   16.5834 C.3     1  UNL1        0.1945
     42 C          63.4001   90.1358   16.6614 C.3     1  UNL1        0.1743
     43 O          63.5212   91.5924   16.3244 O.3     1  UNL1       -0.3469
@<TRIPOS>UNITY_ATOM_ATTR
3 1
charge 1
4 1
charge -1
@<TRIPOS>BOND
     1    42    43    1
     2    43    41    1
     3    36    41    1
     4    36    35    1
     5    35    25    1
     6    25    26   ar
     7    26    27   ar
     8    27    24    1
     9     1    24    1
    10     1     2    1
    11     2     3    1
    12     3     4    2
    13     3     5    1
    14     5     6    1
    15     6    10    1
    16    10    12    1
    17    12    13    1
    18    13    14   ar
    19    14    15   ar
    20    15    20    1
    21    20    21    1
    22    20    22    1
    23    20    23    1
    24    15    16   ar
    25    16    17   ar
    26    17    18   ar
    27    18    19    1
    28     6     7    1
    29     7     8    1
    30    27    28   ar
    31    28    29   ar
    32    29    30    1
    33    29    31   ar
    34    31    32    1
    35    36    37    1
    36    37    38    1
    37    37    39    1
    38    37    40    1
    39    31    25   ar
    40     7     1    1
    41    18    13   ar
    42    10    11    1
    43     8     9    1
    44    32    33    1
    45    32    34    1
@<TRIPOS>MOLECULE
*****
 43 45 0 0 0
SMALL
GASTEIGER

@<TRIPOS>ATOM
      1 C          61.7730   90.0794   10.6574 C.3     1  UNL1        0.0920
      2 C          60.5773   90.4459   11.4857 C.3     1  UNL1        0.2582
      3 S          59.5475   89.4068   11.8170 S.O     1  UNL1        0.0319
      4 O          58.3518   89.7732   12.6453 O.co2   1  UNL1       -0.6812
      5 C          59.7134   88.0012   11.3199 C.3     1  UNL1        0.2736
      6 C          60.9090   87.6349   10.4917 C.3     1  UNL1        0.1416
      7 C          61.9388   88.6739   10.1604 C.3     1  UNL1        0.1353
      8 O          63.1346   88.3075    9.3320 O.3     1  UNL1       -0.3827
      9 H          63.0882   87.3680    9.0952 H       1  UNL1        0.2104
     10 N          61.0749   86.2293    9.9946 N.3     1  UNL1       -0.2886
     11 H          60.9048   86.2505    8.9891 H       1  UNL1        0.1237
     12 C          62.3754   85.5102   10.1987 C.3     1  UNL1        0.0980
     13 C          62.6586   84.8284   11.5044 C.ar    1  UNL1        0.0208
     14 C          62.4193   83.3546   11.6483 C.ar    1  UNL1       -0.0050
     15 C          62.7025   82.6728   12.9539 C.ar    1  UNL1       -0.0229
     16 C          63.2250   83.4647   14.1158 C.ar    1  UNL1       -0.0020
     17 C          63.4643   84.9385   13.9719 C.ar    1  UNL1        0.0290
     18 C          63.1811   85.6203   12.6661 C.ar    1  UNL1        0.1374
     19 F          63.4205   87.0941   12.5222 F       1  UNL1       -0.2045
     20 C          62.4631   81.1990   13.0979 C.3     1  UNL1        0.0189
     21 C          63.1834   80.9558   11.8048 C.3     1  UNL1        0.0044
     22 C          61.7429   81.4423   14.3909 C.3     1  UNL1        0.0044
     23 C          62.2238   79.7252   13.2418 C.3     1  UNL1        0.0044
     24 C          62.8028   91.1185   10.3261 C.3     1  UNL1        0.0342
     25 C          66.1426   92.6121   11.8640 C.ar    1  UNL1        0.1535
     26 C          65.0390   92.3136   10.8929 C.ar    1  UNL1        0.0341
     27 C          63.9064   91.4171   11.2972 C.ar    1  UNL1       -0.0166
     28 C          63.8774   90.8191   12.6725 C.ar    1  UNL1        0.0268
     29 C          64.9809   91.1176   13.6436 C.ar    1  UNL1        0.1556
     30 F          64.9519   90.5196   15.0190 F       1  UNL1       -0.2028
     31 C          66.1136   92.0142   13.2393 C.ar    1  UNL1        0.1037
     32 N          67.2172   92.3127   14.2104 N.pl3   1  UNL1       -0.3529
     33 H          67.1981   91.9202   15.1131 H       1  UNL1        0.1425
     34 H          67.9605   92.9011   13.9451 H       1  UNL1        0.1425
     35 O          67.2752   93.5087   11.4597 O.3     1  UNL1       -0.4665
     36 C          67.4575   93.8835   10.0188 C.3     1  UNL1        0.2891
     37 C          68.2595   93.0001    9.1097 C.3     1  UNL1        0.4366
     38 F          69.0616   92.1167    8.2007 F       1  UNL1       -0.1663
     39 F          67.9151   93.8834    7.9474 F       1  UNL1       -0.1663
     40 F          68.6040   92.1167   10.2720 F       1  UNL1       -0.1663
     41 C          66.8378   95.1417    9.4869 C.3     1  UNL1        0.1945
     42 C          65.9501   96.7584   11.3168 C.3     1  UNL1        0.1743
     43 O          66.9591   96.4220   10.2591 O.3     1  UNL1       -0.3469
@<TRIPOS>UNITY_ATOM_ATTR
3 1
charge 1
4 1
charge -1
@<TRIPOS>BOND
     1    42    43    1
     2    43    41    1
     3    36    41    1
     4    36    35    1
     5    35    25    1
     6    25    26   ar
     7    26    27   ar
     8    27    24    1
     9     1    24    1
    10     1     2    1
    11     2     3    1
    12     3     4    2
    13     3     5    1
    14     5     6    1
    15     6    10    1
    16    10    12    1
    17    12    13    1
    18    13    14   ar
    19    14    15   ar
    20    15    20    1
    21    20    21    1
    22    20    22    1
    23    20    23    1
    24    15    16   ar
    25    16    17   ar
    26    17    18   ar
    27    18    19    1
    28     6     7    1
    29     7     8    1
    30    27    28   ar
    31    28    29   ar
    32    29    30    1
    33    29    31   ar
    34    31    32    1
    35    36    37    1
    36    37    38    1
    37    37    39    1
    38    37    40    1
    39    31    25   ar
    40     7     1    1
    41    18    13   ar
    42    10    11    1
    43     8     9    1
    44    32    33    1
    45    32    34    1
@<TRIPOS>MOLECULE
*****
 43 45 0 0 0
SMALL
GASTEIGER

@<TRIPOS>ATOM
      1 C          61.8263   89.9651   10.6109 C.3     1  UNL1        0.0920
      2 C          60.6280   90.4160   11.3926 C.3     1  UNL1        0.2582
      3 S          59.5680   89.4270   11.7775 S.O     1  UNL1        0.0319
      4 O          58.3699   89.8778   12.5592 O.co2   1  UNL1       -0.6812
      5 C          59.7062   87.9870   11.3807 C.3     1  UNL1        0.2736
      6 C          60.9044   87.5361   10.5990 C.3     1  UNL1        0.1416
      7 C          61.9644   88.5252   10.2141 C.3     1  UNL1        0.1353
      8 O          63.1626   88.0742    9.4324 O.3     1  UNL1       -0.3827
      9 H          63.0964   87.1220    9.2597 H       1  UNL1        0.2104
     10 N          61.0426   86.0961   10.2022 N.3     1  UNL1       -0.2886
     11 H          60.5829   85.9946    9.2973 H       1  UNL1        0.1237
     12 C          62.4048   85.4828   10.0670 C.3     1  UNL1        0.0980
     13 C          63.0180   84.7550   11.2264 C.ar    1  UNL1        0.0208
     14 C          62.9627   85.3526   12.6011 C.ar    1  UNL1       -0.0050
     15 C          63.5759   84.6247   13.7605 C.ar    1  UNL1       -0.0229
     16 C          64.2444   83.2993   13.5452 C.ar    1  UNL1       -0.0020
     17 C          64.2997   82.7017   12.1705 C.ar    1  UNL1        0.0290
     18 C          63.6865   83.4296   11.0111 C.ar    1  UNL1        0.1374
     19 F          63.7418   82.8320    9.6363 F       1  UNL1       -0.2045
     20 C          63.5206   85.2223   15.1352 C.3     1  UNL1        0.0189
     21 C          62.5694   84.1451   15.5652 C.3     1  UNL1        0.0044
     22 C          64.4718   86.2995   14.7053 C.3     1  UNL1        0.0044
     23 C          63.4653   85.8199   16.5100 C.3     1  UNL1        0.0044
     24 C          62.8863   90.9541   10.2260 C.3     1  UNL1        0.0342
     25 C          66.0856   92.6885   11.8092 C.ar    1  UNL1        0.1535
     26 C          65.0369   92.2878   10.8144 C.ar    1  UNL1        0.0341
     27 C          63.9349   91.3549   11.2209 C.ar    1  UNL1       -0.0166
     28 C          63.8816   90.8226   12.6223 C.ar    1  UNL1        0.0268
     29 C          64.9302   91.2234   13.6171 C.ar    1  UNL1        0.1556
     30 F          64.8769   90.6912   15.0186 F       1  UNL1       -0.2028
     31 C          66.0322   92.1563   13.2106 C.ar    1  UNL1        0.1037
     32 N          67.0809   92.5570   14.2055 N.pl3   1  UNL1       -0.3529
     33 H          67.0459   92.2077   15.1253 H       1  UNL1        0.1425
     34 H          67.8042   93.1694   13.9387 H       1  UNL1        0.1425
     35 O          67.1875   93.6215   11.4027 O.3     1  UNL1       -0.4665
     36 C          67.3911   93.9559    9.9547 C.3     1  UNL1        0.2891
     37 C          68.2185   93.0554    9.0861 C.3     1  UNL1        0.4366
     38 F          69.0459   92.1549    8.2175 F       1  UNL1       -0.1663
     39 F          67.8314   93.8613    7.8817 F       1  UNL1       -0.1663
     40 F          68.6056   92.2494   10.2904 F       1  UNL1       -0.1663
     41 C          66.7673   95.1909    9.3753 C.3     1  UNL1        0.1945
     42 C          66.0561   96.8066   11.2816 C.3     1  UNL1        0.1743
     43 O          66.9079   96.5054   10.0842 O.3     1  UNL1       -0.3469
@<TRIPOS>UNITY_ATOM_ATTR
3 1
charge 1
4 1
charge -1
@<TRIPOS>BOND
     1    42    43    1
     2    43    41    1
     3    36    41    1
     4    36    35    1
     5    35    25    1
     6    25    26   ar
     7    26    27   ar
     8    27    24    1
     9     1    24    1
    10     1     2    1
    11     2     3    1
    12     3     4    2
    13     3     5    1
    14     5     6    1
    15     6    10    1
    16    10    12    1
    17    12    13    1
    18    13    14   ar
    19    14    15   ar
    20    15    20    1
    21    20    21    1
    22    20    22    1
    23    20    23    1
    24    15    16   ar
    25    16    17   ar
    26    17    18   ar
    27    18    19    1
    28     6     7    1
    29     7     8    1
    30    27    28   ar
    31    28    29   ar
    32    29    30    1
    33    29    31   ar
    34    31    32    1
    35    36    37    1
    36    37    38    1
    37    37    39    1
    38    37    40    1
    39    31    25   ar
    40     7     1    1
    41    18    13   ar
    42    10    11    1
    43     8     9    1
    44    32    33    1
    45    32    34    1
@<TRIPOS>MOLECULE
*****
 43 45 0 0 0
SMALL
GASTEIGER

@<TRIPOS>ATOM
      1 C          62.0281   90.1598   10.4720 C.3     1  UNL1        0.0920
      2 C          60.8420   90.7223   11.1978 C.3     1  UNL1        0.2582
      3 S          59.7021   89.8254   11.5800 S.O     1  UNL1        0.0319
      4 O          58.5160   90.3879   12.3058 O.co2   1  UNL1       -0.6812
      5 C          59.7482   88.3660   11.2363 C.3     1  UNL1        0.2736
      6 C          60.9343   87.8035   10.5105 C.3     1  UNL1        0.1416
      7 C          62.0743   88.7004   10.1283 C.3     1  UNL1        0.1353
      8 O          63.2604   88.1379    9.4025 O.3     1  UNL1       -0.3827
      9 H          63.1310   87.1873    9.2596 H       1  UNL1        0.2104
     10 N          60.9804   86.3441   10.1668 N.3     1  UNL1       -0.2886
     11 H          60.6718   86.2598    9.1983 H       1  UNL1        0.1237
     12 C          62.2712   85.5881   10.2774 C.3     1  UNL1        0.0980
     13 C          62.6166   84.8761   11.5516 C.ar    1  UNL1        0.0208
     14 C          62.3670   83.4024   11.6788 C.ar    1  UNL1       -0.0050
     15 C          62.7124   82.6905   12.9530 C.ar    1  UNL1       -0.0229
     16 C          63.3074   83.4521   14.1002 C.ar    1  UNL1       -0.0020
     17 C          63.5570   84.9257   13.9731 C.ar    1  UNL1        0.0290
     18 C          63.2116   85.6377   12.6987 C.ar    1  UNL1        0.1374
     19 F          63.4612   87.1113   12.5716 F       1  UNL1       -0.2045
     20 C          62.4628   81.2168   13.0801 C.3     1  UNL1        0.0189
     21 C          61.7709   81.4471   14.3910 C.3     1  UNL1        0.0044
     22 C          63.1547   80.9866   11.7693 C.3     1  UNL1        0.0044
     23 C          62.2133   79.7432   13.2073 C.3     1  UNL1        0.0044
     24 C          63.1681   91.0567   10.0898 C.3     1  UNL1        0.0342
     25 C          65.9241   93.2668   11.8982 C.ar    1  UNL1        0.1535
     26 C          64.9958   92.7426   10.8430 C.ar    1  UNL1        0.0341
     27 C          64.0964   91.5808   11.1451 C.ar    1  UNL1       -0.0166
     28 C          64.1252   90.9432   12.5025 C.ar    1  UNL1        0.0268
     29 C          65.0534   91.4674   13.5578 C.ar    1  UNL1        0.1556
     30 F          65.0823   90.8297   14.9153 F       1  UNL1       -0.2028
     31 C          65.9529   92.6291   13.2556 C.ar    1  UNL1        0.1037
     32 N          66.8811   93.1533   14.3110 N.pl3   1  UNL1       -0.3529
     33 H          66.9001   92.7348   15.2019 H       1  UNL1        0.1425
     34 H          67.4715   93.9158   14.1127 H       1  UNL1        0.1425
     35 O          66.8235   94.4286   11.5961 O.3     1  UNL1       -0.4665
     36 C          66.8436   95.0232   10.2192 C.3     1  UNL1        0.2891
     37 C          65.7396   95.9396    9.7817 C.3     1  UNL1        0.4366
     38 F          64.6355   96.8560    9.3444 F       1  UNL1       -0.1663
     39 F          66.0495   95.6285    8.3475 F       1  UNL1       -0.1663
     40 F          65.4296   96.2508   11.2160 F       1  UNL1       -0.1663
     41 C          67.9678   94.7015    9.2796 C.3     1  UNL1        0.1945
     42 C          68.5322   92.1732    9.4780 C.3     1  UNL1        0.1743
     43 O          68.9394   93.6100    9.6185 O.3     1  UNL1       -0.3469
@<TRIPOS>UNITY_ATOM_ATTR
3 1
charge 1
4 1
charge -1
@<TRIPOS>BOND
     1    42    43    1
     2    43    41    1
     3    36    41    1
     4    36    35    1
     5    35    25    1
     6    25    26   ar
     7    26    27   ar
     8    27    24    1
     9     1    24    1
    10     1     2    1
    11     2     3    1
    12     3     4    2
    13     3     5    1
    14     5     6    1
    15     6    10    1
    16    10    12    1
    17    12    13    1
    18    13    14   ar
    19    14    15   ar
    20    15    20    1
    21    20    21    1
    22    20    22    1
    23    20    23    1
    24    15    16   ar
    25    16    17   ar
    26    17    18   ar
    27    18    19    1
    28     6     7    1
    29     7     8    1
    30    27    28   ar
    31    28    29   ar
    32    29    30    1
    33    29    31   ar
    34    31    32    1
    35    36    37    1
    36    37    38    1
    37    37    39    1
    38    37    40    1
    39    31    25   ar
    40     7     1    1
    41    18    13   ar
    42    10    11    1
    43     8     9    1
    44    32    33    1
    45    32    34    1
@<TRIPOS>MOLECULE
*****
 43 45 0 0 0
SMALL
GASTEIGER

@<TRIPOS>ATOM
      1 C          60.9573   87.7102   10.4293 C.3     1  UNL1        0.0920
      2 C          59.7630   87.8642   11.3238 C.3     1  UNL1        0.2582
      3 S          59.4213   89.2090   11.8936 S.O     1  UNL1        0.0319
      4 O          58.2271   89.3631   12.7880 O.co2   1  UNL1       -0.6812
      5 C          60.2738   90.3998   11.5689 C.3     1  UNL1        0.2736
      6 C          61.4680   90.2457   10.6744 C.3     1  UNL1        0.1416
      7 C          61.8098   88.9009   10.1046 C.3     1  UNL1        0.1353
      8 O          63.0040   88.7469    9.2102 O.3     1  UNL1       -0.3827
      9 H          63.4412   89.6062    9.1036 H       1  UNL1        0.2104
     10 N          62.3205   91.4365   10.3498 N.3     1  UNL1       -0.2886
     11 H          61.9791   92.2081   10.9229 H       1  UNL1        0.1237
     12 C          63.8057   91.3725   10.5499 C.3     1  UNL1        0.0980
     13 C          64.3807   91.4626   11.9324 C.ar    1  UNL1        0.0208
     14 C          63.8254   90.6079   13.0329 C.ar    1  UNL1       -0.0050
     15 C          64.4004   90.6981   14.4153 C.ar    1  UNL1       -0.0229
     16 C          65.5309   91.6430   14.6973 C.ar    1  UNL1       -0.0020
     17 C          66.0862   92.4977   13.5968 C.ar    1  UNL1        0.0290
     18 C          65.5111   92.4075   12.2143 C.ar    1  UNL1        0.1374
     19 F          66.0664   93.2622   11.1138 F       1  UNL1       -0.2045
     20 C          63.8451   89.8434   15.5158 C.3     1  UNL1        0.0189
     21 C          63.6000   91.0695   16.3444 C.3     1  UNL1        0.0044
     22 C          64.0903   88.6172   14.6872 C.3     1  UNL1        0.0044
     23 C          63.2898   88.9887   16.6163 C.3     1  UNL1        0.0044
     24 C          61.2991   86.3653    9.8595 C.3     1  UNL1        0.0342
     25 C          63.5030   84.8163   12.7738 C.ar    1  UNL1        0.1535
     26 C          62.5711   85.7295   12.0339 C.ar    1  UNL1        0.0341
     27 C          62.2311   85.4521   10.5995 C.ar    1  UNL1       -0.0166
     28 C          62.8229   84.2616    9.9051 C.ar    1  UNL1        0.0268
     29 C          63.7549   83.3484   10.6451 C.ar    1  UNL1        0.1556
     30 F          64.3468   82.1578    9.9507 F       1  UNL1       -0.2028
     31 C          64.0949   83.6258   12.0795 C.ar    1  UNL1        0.1037
     32 N          65.0269   82.7126   12.8194 N.pl3   1  UNL1       -0.3529
     33 H          65.4153   81.9311   12.3637 H       1  UNL1        0.1425
     34 H          65.2500   82.8946   13.7609 H       1  UNL1        0.1425
     35 O          63.8430   85.0937   14.2082 O.3     1  UNL1       -0.4665
     36 C          62.9190   84.6402   15.2993 C.3     1  UNL1        0.2891
     37 C          62.8335   85.4159   16.5804 C.3     1  UNL1        0.4366
     38 F          62.7479   86.1915   17.8614 F       1  UNL1       -0.1663
     39 F          61.3361   85.3927   16.4945 F       1  UNL1       -0.1663
     40 F          64.3308   85.4390   16.6663 F       1  UNL1       -0.1663
     41 C          62.0805   83.4110   15.1093 C.3     1  UNL1        0.1945
     42 C          62.0171   81.0522   14.0221 C.3     1  UNL1        0.1743
     43 O          62.7367   82.0914   14.8298 O.3     1  UNL1       -0.3469
@<TRIPOS>UNITY_ATOM_ATTR
3 1
charge 1
4 1
charge -1
@<TRIPOS>BOND
     1    42    43    1
     2    43    41    1
     3    36    41    1
     4    36    35    1
     5    35    25    1
     6    25    26   ar
     7    26    27   ar
     8    27    24    1
     9     1    24    1
    10     1     2    1
    11     2     3    1
    12     3     4    2
    13     3     5    1
    14     5     6    1
    15     6    10    1
    16    10    12    1
    17    12    13    1
    18    13    14   ar
    19    14    15   ar
    20    15    20    1
    21    20    21    1
    22    20    22    1
    23    20    23    1
    24    15    16   ar
    25    16    17   ar
    26    17    18   ar
    27    18    19    1
    28     6     7    1
    29     7     8    1
    30    27    28   ar
    31    28    29   ar
    32    29    30    1
    33    29    31   ar
    34    31    32    1
    35    36    37    1
    36    37    38    1
    37    37    39    1
    38    37    40    1
    39    31    25   ar
    40     7     1    1
    41    18    13   ar
    42    10    11    1
    43     8     9    1
    44    32    33    1
    45    32    34    1
@<TRIPOS>MOLECULE
*****
 43 45 0 0 0
SMALL
GASTEIGER

@<TRIPOS>ATOM
      1 C          61.1308   87.7838   10.5473 C.3     1  UNL1        0.0920
      2 C          59.7598   87.7847   11.1560 C.3     1  UNL1        0.2582
      3 S          59.3070   88.9514   11.9829 S.O     1  UNL1        0.0319
      4 O          57.9361   88.9523   12.5916 O.co2   1  UNL1       -0.6812
      5 C          60.2253   90.1174   12.2010 C.3     1  UNL1        0.2736
      6 C          61.5962   90.1165   11.5923 C.3     1  UNL1        0.1416
      7 C          62.0489   88.9497   10.7654 C.3     1  UNL1        0.1353
      8 O          63.4199   88.9489   10.1567 O.3     1  UNL1       -0.3827
      9 H          63.8792   89.7698   10.3934 H       1  UNL1        0.2104
     10 N          62.5144   91.2824   11.8104 N.3     1  UNL1       -0.2886
     11 H          61.9256   92.1128   11.8756 H       1  UNL1        0.1237
     12 C          63.4282   91.3052   12.9997 C.3     1  UNL1        0.0980
     13 C          64.8743   91.6643   12.8277 C.ar    1  UNL1        0.0208
     14 C          65.3443   92.2920   11.5490 C.ar    1  UNL1       -0.0050
     15 C          66.7904   92.6511   11.3769 C.ar    1  UNL1       -0.0229
     16 C          67.7667   92.3824   12.4836 C.ar    1  UNL1       -0.0020
     17 C          67.2968   91.7547   13.7623 C.ar    1  UNL1        0.0290
     18 C          65.8506   91.3956   13.9343 C.ar    1  UNL1        0.1374
     19 F          65.3807   90.7678   15.2130 F       1  UNL1       -0.2045
     20 C          67.2603   93.2789   10.0982 C.3     1  UNL1        0.0189
     21 C          68.1523   92.0994    9.8469 C.3     1  UNL1        0.0044
     22 C          66.3684   94.4584   10.3495 C.3     1  UNL1        0.0044
     23 C          67.7302   93.9066    8.8195 C.3     1  UNL1        0.0044
     24 C          61.5835   86.6171    9.7205 C.3     1  UNL1        0.0342
     25 C          62.7146   83.9921   12.4737 C.ar    1  UNL1        0.1535
     26 C          62.0214   85.1505   11.8199 C.ar    1  UNL1        0.0341
     27 C          62.2767   85.4585   10.3742 C.ar    1  UNL1       -0.0166
     28 C          63.2252   84.6081    9.5824 C.ar    1  UNL1        0.0268
     29 C          63.9183   83.4496   10.2362 C.ar    1  UNL1        0.1556
     30 F          64.8669   82.5991    9.4443 F       1  UNL1       -0.2028
     31 C          63.6630   83.1416   11.6818 C.ar    1  UNL1        0.1037
     32 N          64.3562   81.9831   12.3356 N.pl3   1  UNL1       -0.3529
     33 H          64.9787   81.4249   11.8159 H       1  UNL1        0.1425
     34 H          64.1887   81.7809   13.2845 H       1  UNL1        0.1425
     35 O          62.4593   83.6841   13.9194 O.3     1  UNL1       -0.4665
     36 C          63.1045   84.5150   14.9885 C.3     1  UNL1        0.2891
     37 C          64.5048   85.0199   14.8033 C.3     1  UNL1        0.4366
     38 F          65.9050   85.5249   14.6181 F       1  UNL1       -0.1663
     39 F          65.0388   83.6535   15.1156 F       1  UNL1       -0.1663
     40 F          63.9708   86.3864   14.4910 F       1  UNL1       -0.1663
     41 C          62.3494   84.8411   16.2430 C.3     1  UNL1        0.1945
     42 C          62.7310   86.6598   18.0587 C.3     1  UNL1        0.1743
     43 O          62.2334   86.2652   16.6998 O.3     1  UNL1       -0.3469
@<TRIPOS>UNITY_ATOM_ATTR
3 1
charge 1
4 1
charge -1
@<TRIPOS>BOND
     1    42    43    1
     2    43    41    1
     3    36    41    1
     4    36    35    1
     5    35    25    1
     6    25    26   ar
     7    26    27   ar
     8    27    24    1
     9     1    24    1
    10     1     2    1
    11     2     3    1
    12     3     4    2
    13     3     5    1
    14     5     6    1
    15     6    10    1
    16    10    12    1
    17    12    13    1
    18    13    14   ar
    19    14    15   ar
    20    15    20    1
    21    20    21    1
    22    20    22    1
    23    20    23    1
    24    15    16   ar
    25    16    17   ar
    26    17    18   ar
    27    18    19    1
    28     6     7    1
    29     7     8    1
    30    27    28   ar
    31    28    29   ar
    32    29    30    1
    33    29    31   ar
    34    31    32    1
    35    36    37    1
    36    37    38    1
    37    37    39    1
    38    37    40    1
    39    31    25   ar
    40     7     1    1
    41    18    13   ar
    42    10    11    1
    43     8     9    1
    44    32    33    1
    45    32    34    1
@<TRIPOS>MOLECULE
*****
 43 45 0 0 0
SMALL
GASTEIGER

@<TRIPOS>ATOM
      1 C          61.7887   90.0737   10.5047 C.3     1  UNL1        0.0920
      2 C          60.6221   90.4864   11.3525 C.3     1  UNL1        0.2582
      3 S          59.5849   89.4759   11.7442 S.O     1  UNL1        0.0319
      4 O          58.4184   89.8886   12.5920 O.co2   1  UNL1       -0.6812
      5 C          59.7144   88.0528   11.2880 C.3     1  UNL1        0.2736
      6 C          60.8810   87.6402   10.4402 C.3     1  UNL1        0.1416
      7 C          61.9181   88.6506   10.0485 C.3     1  UNL1        0.1353
      8 O          63.0847   88.2379    9.2007 O.3     1  UNL1       -0.3827
      9 H          63.0166   87.2923    8.9952 H       1  UNL1        0.2104
     10 N          61.0104   86.2171    9.9840 N.3     1  UNL1       -0.2886
     11 H          60.7980   86.2071    8.9864 H       1  UNL1        0.1237
     12 C          62.3106   85.4893   10.1571 C.3     1  UNL1        0.0980
     13 C          62.6243   84.8136   11.4589 C.ar    1  UNL1        0.0208
     14 C          62.3856   83.3410   11.6162 C.ar    1  UNL1       -0.0050
     15 C          62.6994   82.6653   12.9181 C.ar    1  UNL1       -0.0229
     16 C          63.2518   83.4620   14.0627 C.ar    1  UNL1       -0.0020
     17 C          63.4904   84.9345   13.9054 C.ar    1  UNL1        0.0290
     18 C          63.1767   85.6103   12.6035 C.ar    1  UNL1        0.1374
     19 F          63.4153   87.0828   12.4462 F       1  UNL1       -0.2045
     20 C          62.4607   81.1927   13.0753 C.3     1  UNL1        0.0189
     21 C          61.7801   81.4433   14.3884 C.3     1  UNL1        0.0044
     22 C          63.1413   80.9422   11.7623 C.3     1  UNL1        0.0044
     23 C          62.2220   79.7202   13.2326 C.3     1  UNL1        0.0044
     24 C          62.8258   91.0841   10.1130 C.3     1  UNL1        0.0342
     25 C          65.1616   91.0638   13.3214 C.ar    1  UNL1        0.1535
     26 C          64.0783   90.6877   12.3545 C.ar    1  UNL1        0.0341
     27 C          63.9092   91.4602   11.0799 C.ar    1  UNL1       -0.0166
     28 C          64.8234   92.6089   10.7722 C.ar    1  UNL1        0.0268
     29 C          65.9067   92.9850   11.7391 C.ar    1  UNL1        0.1556
     30 F          66.8211   94.1337   11.4314 F       1  UNL1       -0.2028
     31 C          66.0758   92.2124   13.0137 C.ar    1  UNL1        0.1037
     32 N          67.1592   92.5886   13.9806 N.pl3   1  UNL1       -0.3529
     33 H          67.7593   93.3425   13.7787 H       1  UNL1        0.1425
     34 H          67.2702   92.0816   14.8172 H       1  UNL1        0.1425
     35 O          65.3307   90.2912   14.5960 O.3     1  UNL1       -0.4665
     36 C          64.1292   89.9246   15.4157 C.3     1  UNL1        0.2891
     37 C          63.8941   88.4948   15.8039 C.3     1  UNL1        0.4366
     38 F          63.6589   87.0651   16.1920 F       1  UNL1       -0.1663
     39 F          63.0606   88.9474   16.9660 F       1  UNL1       -0.1663
     40 F          64.7275   88.0423   14.6418 F       1  UNL1       -0.1663
     41 C          63.1629   90.9875   15.8474 C.3     1  UNL1        0.1945
     42 C          65.1034   92.3979   16.8452 C.3     1  UNL1        0.1743
     43 O          63.6350   92.1298   16.6974 O.3     1  UNL1       -0.3469
@<TRIPOS>UNITY_ATOM_ATTR
3 1
charge 1
4 1
charge -1
@<TRIPOS>BOND
     1    42    43    1
     2    43    41    1
     3    36    41    1
     4    36    35    1
     5    35    25    1
     6    25    26   ar
     7    26    27   ar
     8    27    24    1
     9     1    24    1
    10     1     2    1
    11     2     3    1
    12     3     4    2
    13     3     5    1
    14     5     6    1
    15     6    10    1
    16    10    12    1
    17    12    13    1
    18    13    14   ar
    19    14    15   ar
    20    15    20    1
    21    20    21    1
    22    20    22    1
    23    20    23    1
    24    15    16   ar
    25    16    17   ar
    26    17    18   ar
    27    18    19    1
    28     6     7    1
    29     7     8    1
    30    27    28   ar
    31    28    29   ar
    32    29    30    1
    33    29    31   ar
    34    31    32    1
    35    36    37    1
    36    37    38    1
    37    37    39    1
    38    37    40    1
    39    31    25   ar
    40     7     1    1
    41    18    13   ar
    42    10    11    1
    43     8     9    1
    44    32    33    1
    45    32    34    1
@<TRIPOS>MOLECULE
*****
 43 45 0 0 0
SMALL
GASTEIGER

@<TRIPOS>ATOM
      1 C          61.7054   90.0902   10.7491 C.3     1  UNL1        0.0920
      2 C          60.9450   90.0387    9.4570 C.3     1  UNL1        0.2582
      3 S          60.4452   88.7252    8.9328 S.O     1  UNL1        0.0319
      4 O          59.6849   88.6736    7.6409 O.co2   1  UNL1       -0.6812
      5 C          60.7059   87.4631    9.7006 C.3     1  UNL1        0.2736
      6 C          61.4662   87.5147   10.9926 C.3     1  UNL1        0.1416
      7 C          61.9659   88.8283   11.5168 C.3     1  UNL1        0.1353
      8 O          62.7263   88.8798   12.8088 O.3     1  UNL1       -0.3827
      9 H          62.8060   87.9843   13.1730 H       1  UNL1        0.2104
     10 N          61.7268   86.2527   11.7604 N.3     1  UNL1       -0.2886
     11 H          60.8225   85.8031   11.9036 H       1  UNL1        0.1237
     12 C          62.6452   85.2086   11.1978 C.3     1  UNL1        0.0980
     13 C          62.9575   83.9766   11.9943 C.ar    1  UNL1        0.0208
     14 C          62.7463   82.6197   11.3907 C.ar    1  UNL1       -0.0050
     15 C          63.0586   81.3877   12.1872 C.ar    1  UNL1       -0.0229
     16 C          63.5821   81.5124   13.5874 C.ar    1  UNL1       -0.0020
     17 C          63.7932   82.8693   14.1910 C.ar    1  UNL1        0.0290
     18 C          63.4809   84.1014   13.3944 C.ar    1  UNL1        0.1374
     19 F          63.6921   85.4583   13.9980 F       1  UNL1       -0.2045
     20 C          62.8474   80.0308   11.5836 C.3     1  UNL1        0.0189
     21 C          62.4624   79.4920   12.9295 C.3     1  UNL1        0.0044
     22 C          63.2325   80.5696   10.2377 C.3     1  UNL1        0.0044
     23 C          62.6363   78.6740   10.9800 C.3     1  UNL1        0.0044
     24 C          62.2051   91.4038   11.2733 C.3     1  UNL1        0.0342
     25 C          65.6774   91.4758   13.1939 C.ar    1  UNL1        0.1535
     26 C          64.2158   91.2869   12.9146 C.ar    1  UNL1        0.0341
     27 C          63.6668   91.5927   11.5526 C.ar    1  UNL1       -0.0166
     28 C          64.5795   92.0873   10.4698 C.ar    1  UNL1        0.0268
     29 C          66.0410   92.2761   10.7491 C.ar    1  UNL1        0.1556
     30 F          66.9538   92.7708    9.6663 F       1  UNL1       -0.2028
     31 C          66.5900   91.9704   12.1111 C.ar    1  UNL1        0.1037
     32 N          68.0517   92.1593   12.3904 N.pl3   1  UNL1       -0.3529
     33 H          68.6507   92.4839   11.6797 H       1  UNL1        0.1425
     34 H          68.4120   91.9586   13.2844 H       1  UNL1        0.1425
     35 O          66.2263   91.1701   14.5560 O.3     1  UNL1       -0.4665
     36 C          66.1941   92.2168   15.6298 C.3     1  UNL1        0.2891
     37 C          67.3431   93.1687   15.7840 C.3     1  UNL1        0.4366
     38 F          68.4920   94.1206   15.9382 F       1  UNL1       -0.1663
     39 F          66.6920   94.1115   14.8159 F       1  UNL1       -0.1663
     40 F          67.9942   92.2260   16.7522 F       1  UNL1       -0.1663
     41 C          65.0130   92.3116   16.5496 C.3     1  UNL1        0.1945
     42 C          63.4545   90.2355   16.4434 C.3     1  UNL1        0.1743
     43 O          63.7064   91.6867   16.1593 O.3     1  UNL1       -0.3469
@<TRIPOS>UNITY_ATOM_ATTR
3 1
charge 1
4 1
charge -1
@<TRIPOS>BOND
     1    42    43    1
     2    43    41    1
     3    36    41    1
     4    36    35    1
     5    35    25    1
     6    25    26   ar
     7    26    27   ar
     8    27    24    1
     9     1    24    1
    10     1     2    1
    11     2     3    1
    12     3     4    2
    13     3     5    1
    14     5     6    1
    15     6    10    1
    16    10    12    1
    17    12    13    1
    18    13    14   ar
    19    14    15   ar
    20    15    20    1
    21    20    21    1
    22    20    22    1
    23    20    23    1
    24    15    16   ar
    25    16    17   ar
    26    17    18   ar
    27    18    19    1
    28     6     7    1
    29     7     8    1
    30    27    28   ar
    31    28    29   ar
    32    29    30    1
    33    29    31   ar
    34    31    32    1
    35    36    37    1
    36    37    38    1
    37    37    39    1
    38    37    40    1
    39    31    25   ar
    40     7     1    1
    41    18    13   ar
    42    10    11    1
    43     8     9    1
    44    32    33    1
    45    32    34    1
