@<TRIPOS>MOLECULE
*****
 38 43 0 0 0
SMALL
GASTEIGER

@<TRIPOS>ATOM
      1 C          63.7275   84.4668   13.8667 C.2     1  UNL1        0.1558
      2 N          64.5154   84.9515   15.0475 N.2     1  UNL1       -0.2402
      3 C          64.5760   86.4488   14.9811 C.2     1  UNL1        0.0929
      4 C          63.8256   86.8894   13.7593 C.2     1  UNL1        0.0093
      5 C          63.3012   85.6645   13.0706 C.3     1  UNL1        0.1374
      6 N          62.5033   85.7979   11.8075 N.pl3   1  UNL1       -0.3295
      7 C          62.2297   87.1563   11.2331 C.2     1  UNL1        0.0215
      8 C          62.7541   88.3813   11.9218 C.2     1  UNL1        0.0322
      9 C          62.4806   89.7397   11.3475 C.2     1  UNL1        0.1707
     10 O          63.0050   90.9647   12.0363 O.2     1  UNL1       -0.2916
     11 C          61.6826   89.8731   10.0844 C.3     1  UNL1        0.0693
     12 C          61.1582   88.6481    9.3957 C.3     1  UNL1        0.0141
     13 C          61.4318   87.2897    9.9700 C.3     1  UNL1        0.0411
     14 C          63.5521   88.2478   13.1850 C.3     1  UNL1        0.1049
     15 H          62.1591   84.9939   11.3554 H       1  UNL1        0.1471
     16 C          64.0765   89.4728   13.8738 C.ar    1  UNL1        0.1312
     17 C          63.6208   90.0009   15.2017 C.ar    1  UNL1        0.0373
     18 C          64.4113   91.2393   15.5042 C.ar    1  UNL1        0.0472
     19 C          65.3557   91.4765   14.3632 C.ar    1  UNL1        0.1774
     20 O          65.1487   90.3848   13.3556 O.2     1  UNL1       -0.4506
     21 S          66.3350   92.6070   14.2497 S.3     1  UNL1       -0.0117
     22 C          66.5420   93.2904   12.9307 C.2     1  UNL1        0.1967
     23 N          67.2518   92.7148   11.7412 N.2     1  UNL1       -0.2184
     24 C          67.2241   93.7381   10.6448 C.2     1  UNL1        0.1101
     25 C          67.7668   93.7259    9.2465 C.2     1  UNL1        0.0603
     26 N          68.4937   92.5179    8.7347 N.pl3   1  UNL1       -0.3558
     27 C          67.5826   94.9219    8.3601 C.2     1  UNL1        0.0115
     28 C          66.8556   96.1299    8.8719 C.2     1  UNL1       -0.0184
     29 C          66.3129   96.1422   10.2702 C.3     1  UNL1        0.0735
     30 C          66.4971   94.9462   11.1566 C.2     1  UNL1        0.0843
     31 N          66.0756   94.6695   12.5694 N.2     1  UNL1       -0.2234
     32 H          68.6147   91.7329    9.3165 H       1  UNL1        0.1424
     33 H          68.8500   92.5099    7.8169 H       1  UNL1        0.1424
     34 C          63.4199   83.0356   13.5394 C.2     1  UNL1        0.3569
     35 O          63.8191   81.9463   14.4903 O.2     1  UNL1       -0.2435
     36 O          62.7131   82.6937   12.2613 O.3     1  UNL1       -0.4446
     37 C          64.2471   83.0479   10.1946 C.3     1  UNL1        0.0513
     38 C          63.4849   82.1310   11.1047 C.3     1  UNL1        0.2089
@<TRIPOS>BOND
     1    37    38    1
     2    38    36    1
     3    36    34    1
     4    34    35    2
     5    34     1    1
     6     1     2    2
     7     2     3    1
     8     3     4    2
     9     4     5    1
    10     5     6    1
    11     6     7    1
    12     7     8    2
    13     8     9    1
    14     9    10    2
    15     9    11    1
    16    11    12    1
    17    12    13    1
    18     8    14    1
    19    14    16    1
    20    16    17   ar
    21    17    18   ar
    22    18    19   ar
    23    19    21    1
    24    21    22    1
    25    22    23    2
    26    23    24    1
    27    24    25    2
    28    25    26    1
    29    25    27    1
    30    27    28    2
    31    28    29    1
    32    29    30    1
    33    30    31    2
    34    19    20   ar
    35     5     1    1
    36    13     7    1
    37    20    16   ar
    38    14     4    1
    39    31    22    1
    40    30    24    1
    41     6    15    1
    42    26    32    1
    43    26    33    1
@<TRIPOS>MOLECULE
*****
 38 43 0 0 0
SMALL
GASTEIGER

@<TRIPOS>ATOM
      1 C          60.8337   88.2103    9.5170 C.2     1  UNL1        0.1558
      2 N          60.9250   89.6994    9.6726 N.2     1  UNL1       -0.2402
      3 C          61.7968   89.9889   10.8584 C.2     1  UNL1        0.0929
      4 C          62.2444   88.6787   11.4356 C.2     1  UNL1        0.0093
      5 C          61.6491   87.5795   10.6065 C.3     1  UNL1        0.1374
      6 N          61.9264   86.1462   10.9508 N.pl3   1  UNL1       -0.3295
      7 C          62.7991   85.8120   12.1243 C.2     1  UNL1        0.0215
      8 C          63.3944   86.9112   12.9533 C.2     1  UNL1        0.0322
      9 C          64.2670   86.5771   14.1267 C.2     1  UNL1        0.1707
     10 O          64.8623   87.6763   14.9557 O.2     1  UNL1       -0.2916
     11 C          64.5444   85.1438   14.4710 C.3     1  UNL1        0.0693
     12 C          63.9491   84.0445   13.6419 C.3     1  UNL1        0.0141
     13 C          63.0764   84.3786   12.4686 C.3     1  UNL1        0.0411
     14 C          63.1170   88.3446   12.6090 C.3     1  UNL1        0.1049
     15 H          61.5357   85.4247   10.4067 H       1  UNL1        0.1471
     16 C          63.7123   89.4438   13.4380 C.ar    1  UNL1        0.1312
     17 C          63.2875   89.8323   14.8232 C.ar    1  UNL1        0.0373
     18 C          64.1496   90.9761   15.2687 C.ar    1  UNL1        0.0472
     19 C          65.1071   91.2946   14.1589 C.ar    1  UNL1        0.1774
     20 O          64.8369   90.3476   13.0275 O.2     1  UNL1       -0.4506
     21 S          66.1516   92.3711   14.1773 S.3     1  UNL1       -0.0117
     22 C          66.4236   93.1734   12.9395 C.2     1  UNL1        0.1967
     23 N          67.1179   92.6809   11.7045 N.2     1  UNL1       -0.2184
     24 C          67.1724   93.8122   10.7209 C.2     1  UNL1        0.1101
     25 C          67.7383   93.9112    9.3353 C.2     1  UNL1        0.0603
     26 N          68.3990   92.7196    8.7081 N.pl3   1  UNL1       -0.3558
     27 C          67.6435   95.2019    8.5770 C.2     1  UNL1        0.0115
     28 C          66.9829   96.3935    9.2042 C.2     1  UNL1       -0.0184
     29 C          66.4170   96.2946   10.5898 C.3     1  UNL1        0.0735
     30 C          66.5118   95.0039   11.3482 C.2     1  UNL1        0.0843
     31 N          66.0489   94.6090   12.7193 N.2     1  UNL1       -0.2234
     32 H          68.4612   91.8725    9.2059 H       1  UNL1        0.1424
     33 H          68.7704   92.7845    7.7987 H       1  UNL1        0.1424
     34 C          60.0623   87.4802    8.4577 C.2     1  UNL1        0.3569
     35 O          59.1101   88.2289    7.5730 O.2     1  UNL1       -0.2435
     36 O          60.2433   86.0015    8.2832 O.3     1  UNL1       -0.4446
     37 C          62.6538   85.1527    7.8152 C.3     1  UNL1        0.0513
     38 C          61.2739   85.4797    7.3263 C.3     1  UNL1        0.2089
@<TRIPOS>BOND
     1    37    38    1
     2    38    36    1
     3    36    34    1
     4    34    35    2
     5    34     1    1
     6     1     2    2
     7     2     3    1
     8     3     4    2
     9     4     5    1
    10     5     6    1
    11     6     7    1
    12     7     8    2
    13     8     9    1
    14     9    10    2
    15     9    11    1
    16    11    12    1
    17    12    13    1
    18     8    14    1
    19    14    16    1
    20    16    17   ar
    21    17    18   ar
    22    18    19   ar
    23    19    21    1
    24    21    22    1
    25    22    23    2
    26    23    24    1
    27    24    25    2
    28    25    26    1
    29    25    27    1
    30    27    28    2
    31    28    29    1
    32    29    30    1
    33    30    31    2
    34    19    20   ar
    35     5     1    1
    36    13     7    1
    37    20    16   ar
    38    14     4    1
    39    31    22    1
    40    30    24    1
    41     6    15    1
    42    26    32    1
    43    26    33    1
@<TRIPOS>MOLECULE
*****
 38 43 0 0 0
SMALL
GASTEIGER

@<TRIPOS>ATOM
      1 C          60.5134   88.2594    9.3275 C.2     1  UNL1        0.1558
      2 N          60.6692   89.7291    9.5835 N.2     1  UNL1       -0.2402
      3 C          61.5796   89.9001   10.7634 C.2     1  UNL1        0.0929
      4 C          61.9863   88.5360   11.2366 C.2     1  UNL1        0.0093
      5 C          61.3273   87.5220   10.3491 C.3     1  UNL1        0.1374
      6 N          61.5536   86.0582   10.5860 N.pl3   1  UNL1       -0.3295
      7 C          62.4389   85.6084   11.7103 C.2     1  UNL1        0.0215
      8 C          63.0979   86.6225   12.5977 C.2     1  UNL1        0.0322
      9 C          63.9831   86.1727   13.7220 C.2     1  UNL1        0.1707
     10 O          64.6421   87.1868   14.6094 O.2     1  UNL1       -0.2916
     11 C          64.2094   84.7090   13.9589 C.3     1  UNL1        0.0693
     12 C          63.5504   83.6949   13.0715 C.3     1  UNL1        0.0141
     13 C          62.6652   84.1447   11.9472 C.3     1  UNL1        0.0411
     14 C          62.8716   88.0863   12.3608 C.3     1  UNL1        0.1049
     15 H          61.1211   85.3927   10.0036 H       1  UNL1        0.1471
     16 C          63.5305   89.1003   13.2482 C.ar    1  UNL1        0.1312
     17 C          63.2176   89.3416   14.6952 C.ar    1  UNL1        0.0373
     18 C          64.1118   90.4415   15.1858 C.ar    1  UNL1        0.0472
     19 C          64.9774   90.8800   14.0419 C.ar    1  UNL1        0.1774
     20 O          64.6182   90.0511   12.8445 O.2     1  UNL1       -0.4506
     21 S          66.0193   91.9581   14.0875 S.3     1  UNL1       -0.0117
     22 C          66.3177   92.7651   12.8589 C.2     1  UNL1        0.1967
     23 N          65.7412   94.1091   12.5253 N.2     1  UNL1       -0.2184
     24 C          66.3122   94.5445   11.2082 C.2     1  UNL1        0.1101
     25 C          66.1060   95.7809   10.3843 C.2     1  UNL1        0.0603
     26 N          65.1766   96.8558   10.8646 N.pl3   1  UNL1       -0.3558
     27 C          66.8292   95.9423    9.0801 C.2     1  UNL1        0.0115
     28 C          67.7586   94.8674    8.5999 C.2     1  UNL1       -0.0184
     29 C          67.9649   93.6310    9.4237 C.3     1  UNL1        0.0735
     30 C          67.2417   93.4696   10.7279 C.2     1  UNL1        0.0843
     31 N          67.2451   92.3699   11.7481 N.2     1  UNL1       -0.2234
     32 H          64.7019   96.7498   11.7206 H       1  UNL1        0.1424
     33 H          65.0412   97.6672   10.3239 H       1  UNL1        0.1424
     34 C          59.6884   87.6363    8.2407 C.2     1  UNL1        0.3569
     35 O          59.7491   86.1557    8.0083 O.2     1  UNL1       -0.2435
     36 O          58.8026   88.4939    7.3863 O.3     1  UNL1       -0.4446
     37 C          58.6272   90.5431    5.7988 C.3     1  UNL1        0.0513
     38 C          59.4032   89.3751    6.3313 C.3     1  UNL1        0.2089
@<TRIPOS>BOND
     1    37    38    1
     2    38    36    1
     3    36    34    1
     4    34    35    2
     5    34     1    1
     6     1     2    2
     7     2     3    1
     8     3     4    2
     9     4     5    1
    10     5     6    1
    11     6     7    1
    12     7     8    2
    13     8     9    1
    14     9    10    2
    15     9    11    1
    16    11    12    1
    17    12    13    1
    18     8    14    1
    19    14    16    1
    20    16    17   ar
    21    17    18   ar
    22    18    19   ar
    23    19    21    1
    24    21    22    1
    25    22    23    2
    26    23    24    1
    27    24    25    2
    28    25    26    1
    29    25    27    1
    30    27    28    2
    31    28    29    1
    32    29    30    1
    33    30    31    2
    34    19    20   ar
    35     5     1    1
    36    13     7    1
    37    20    16   ar
    38    14     4    1
    39    31    22    1
    40    30    24    1
    41     6    15    1
    42    26    32    1
    43    26    33    1
