@<TRIPOS>MOLECULE
*****
 29 31 0 0 0
SMALL
GASTEIGER

@<TRIPOS>ATOM
      1 C          59.3735   88.8655    7.4512 C.3     1  UNL1        0.0518
      2 C          60.3092   88.7184    8.6144 C.ar    1  UNL1        0.0563
      3 N          60.7428   89.9295    9.3859 N.ar    1  UNL1       -0.2524
      4 C          61.6783   89.7825   10.5491 C.ar    1  UNL1        0.0830
      5 C          62.1804   88.4243   10.9408 C.ar    1  UNL1        0.0686
      6 C          61.7468   87.2132   10.1693 C.ar    1  UNL1        0.0048
      7 C          60.8111   87.3603    9.0061 C.ar    1  UNL1        0.0072
      8 C          63.0873   88.5889   12.1242 C.2     1  UNL1        0.2509
      9 O          63.8090   87.4870   12.8419 O.2     1  UNL1       -0.2698
     10 N          63.1458   90.0487   12.4638 N.am    1  UNL1       -0.2620
     11 C          62.2750   90.7864   11.4904 C.3     1  UNL1        0.1401
     12 C          62.2488   85.8550   10.5610 C.ar    1  UNL1        0.0106
     13 C          61.9041   85.2872   11.9059 C.ar    1  UNL1        0.0017
     14 C          62.4061   83.9291   12.2977 C.ar    1  UNL1        0.0114
     15 C          63.2526   83.1387   11.3444 C.ar    1  UNL1        0.0585
     16 CL         63.7545   81.7806   11.7361 Cl      1  UNL1       -0.0822
     17 C          63.5972   83.7065    9.9995 C.ar    1  UNL1        0.0228
     18 C          63.0953   85.0647    9.6078 C.ar    1  UNL1        0.0585
     19 CL         63.4399   85.6325    8.2628 Cl      1  UNL1       -0.0822
     20 C          60.3775   86.1491    8.2346 C.3     1  UNL1        0.0934
     21 N          58.9809   86.0646    7.6940 N.3     1  UNL1       -0.3174
     22 H          58.3187   86.0197    8.4685 H       1  UNL1        0.1192
     23 H          58.8889   85.2271    7.1191 H       1  UNL1        0.1192
     24 C          63.9363   90.6631   13.5808 C.3     1  UNL1        0.1794
     25 C          63.5595   90.3874   15.0063 C.2     1  UNL1        0.2397
     26 N          63.2922   88.9804   15.4527 N.am    1  UNL1       -0.3274
     27 O          63.4501   91.5184   15.9854 O.2     1  UNL1       -0.2735
     28 H          63.3640   88.2381   14.8100 H       1  UNL1        0.1450
     29 H          63.0449   88.7994   16.3882 H       1  UNL1        0.1450
@<TRIPOS>BOND
     1     1     2    1
     2     2     3   ar
     3     3     4   ar
     4     4     5   ar
     5     5     6   ar
     6     6    12    1
     7    12    13   ar
     8    13    14   ar
     9    14    15   ar
    10    15    16    1
    11    15    17   ar
    12    17    18   ar
    13    18    19    1
    14     6     7   ar
    15     7    20    1
    16    20    21    1
    17     5     8    1
    18     8     9    2
    19     8    10   am
    20    10    24    1
    21    24    25    1
    22    25    26   am
    23    25    27    2
    24    10    11    1
    25     7     2   ar
    26    11     4    1
    27    18    12   ar
    28    21    22    1
    29    21    23    1
    30    26    28    1
    31    26    29    1
@<TRIPOS>MOLECULE
*****
 29 31 0 0 0
SMALL
GASTEIGER

@<TRIPOS>ATOM
      1 C          64.2639   90.9384   13.5376 C.3     1  UNL1        0.0518
      2 C          63.9120   89.4940   13.3374 C.ar    1  UNL1        0.0563
      3 N          64.3403   88.4709   14.3473 N.ar    1  UNL1       -0.2524
      4 C          63.9885   87.0266   14.1472 C.ar    1  UNL1        0.0830
      5 C          63.2083   86.6053   12.9372 C.ar    1  UNL1        0.0686
      6 C          62.7799   87.6285   11.9274 C.ar    1  UNL1        0.0048
      7 C          63.1319   89.0729   12.1276 C.ar    1  UNL1        0.0072
      8 C          63.0091   85.1203   13.0079 C.2     1  UNL1        0.2509
      9 O          62.2808   84.2795   12.0017 O.2     1  UNL1       -0.2698
     10 N          63.6663   84.6237   14.2615 N.am    1  UNL1       -0.2620
     11 C          64.2715   85.8018   14.9656 C.3     1  UNL1        0.1401
     12 C          61.9997   87.2073   10.7175 C.ar    1  UNL1        0.0106
     13 C          62.6932   86.5160    9.5812 C.ar    1  UNL1        0.0017
     14 C          61.9131   86.0948    8.3712 C.ar    1  UNL1        0.0114
     15 C          60.4395   86.3650    8.2976 C.ar    1  UNL1        0.0585
     16 CL         59.6594   85.9439    7.0876 Cl      1  UNL1       -0.0822
     17 C          59.7460   87.0564    9.4339 C.ar    1  UNL1        0.0228
     18 C          60.5261   87.4775   10.6438 C.ar    1  UNL1        0.0585
     19 CL         59.8326   88.1689   11.7801 Cl      1  UNL1       -0.0822
     20 C          62.7035   90.0961   11.1177 C.3     1  UNL1        0.0934
     21 N          61.4874   90.9367   11.3713 N.3     1  UNL1       -0.3174
     22 H          60.6582   90.3428   11.3748 H       1  UNL1        0.1192
     23 H          61.3999   91.6385   10.6363 H       1  UNL1        0.1192
     24 C          63.7104   83.1991   14.7290 C.3     1  UNL1        0.1794
     25 C          63.9469   82.0933   13.7435 C.2     1  UNL1        0.2397
     26 N          64.7013   82.3669   12.4761 N.am    1  UNL1       -0.3274
     27 O          63.4291   80.7140   14.0252 O.2     1  UNL1       -0.2735
     28 H          65.0411   83.2722   12.2912 H       1  UNL1        0.1450
     29 H          64.8565   81.6412   11.8293 H       1  UNL1        0.1450
@<TRIPOS>BOND
     1     1     2    1
     2     2     3   ar
     3     3     4   ar
     4     4     5   ar
     5     5     6   ar
     6     6    12    1
     7    12    13   ar
     8    13    14   ar
     9    14    15   ar
    10    15    16    1
    11    15    17   ar
    12    17    18   ar
    13    18    19    1
    14     6     7   ar
    15     7    20    1
    16    20    21    1
    17     5     8    1
    18     8     9    2
    19     8    10   am
    20    10    24    1
    21    24    25    1
    22    25    26   am
    23    25    27    2
    24    10    11    1
    25     7     2   ar
    26    11     4    1
    27    18    12   ar
    28    21    22    1
    29    21    23    1
    30    26    28    1
    31    26    29    1
@<TRIPOS>MOLECULE
*****
 29 31 0 0 0
SMALL
GASTEIGER

@<TRIPOS>ATOM
      1 C          63.9985   84.2267   14.9285 C.3     1  UNL1        0.0518
      2 C          63.7752   85.4905   14.1519 C.ar    1  UNL1        0.0563
      3 N          64.3283   86.7895   14.6583 N.ar    1  UNL1       -0.2524
      4 C          64.1050   88.0533   13.8817 C.ar    1  UNL1        0.0830
      5 C          63.3287   88.0180   12.5987 C.ar    1  UNL1        0.0686
      6 C          62.7755   86.7189   12.0923 C.ar    1  UNL1        0.0048
      7 C          62.9988   85.4551   12.8690 C.ar    1  UNL1        0.0072
      8 C          63.2699   89.4142   12.0538 C.2     1  UNL1        0.2509
      9 O          62.5903   89.8379   10.7854 O.2     1  UNL1       -0.2698
     10 N          64.0099   90.3125   13.0001 N.am    1  UNL1       -0.2620
     11 C          64.5261   89.4714   14.1298 C.3     1  UNL1        0.1401
     12 C          61.9992   86.6835   10.8093 C.ar    1  UNL1        0.0106
     13 C          62.5810   86.0154    9.5989 C.ar    1  UNL1        0.0017
     14 C          61.8047   85.9799    8.3159 C.ar    1  UNL1        0.0114
     15 C          60.4466   86.6125    8.2434 C.ar    1  UNL1        0.0585
     16 CL         59.6703   86.5771    6.9604 Cl      1  UNL1       -0.0822
     17 C          59.8648   87.2806    9.4538 C.ar    1  UNL1        0.0228
     18 C          60.6411   87.3161   10.7368 C.ar    1  UNL1        0.0585
     19 CL         60.0592   87.9842   11.9473 Cl      1  UNL1       -0.0822
     20 C          62.4457   84.1559   12.3626 C.3     1  UNL1        0.0934
     21 N          63.3296   83.2079   11.6077 N.3     1  UNL1       -0.3174
     22 H          63.6059   83.6324   10.7224 H       1  UNL1        0.1192
     23 H          62.8224   82.3418   11.4258 H       1  UNL1        0.1192
     24 C          64.2003   91.7922   12.8441 C.3     1  UNL1        0.1794
     25 C          65.0482   92.3257   11.7276 C.2     1  UNL1        0.2397
     26 N          64.4876   92.4204   10.3395 N.am    1  UNL1       -0.3274
     27 O          66.4567   92.7644   11.9992 O.2     1  UNL1       -0.2735
     28 H          63.5632   92.1325   10.1613 H       1  UNL1        0.1450
     29 H          65.0440   92.7706    9.6067 H       1  UNL1        0.1450
@<TRIPOS>BOND
     1     1     2    1
     2     2     3   ar
     3     3     4   ar
     4     4     5   ar
     5     5     6   ar
     6     6    12    1
     7    12    13   ar
     8    13    14   ar
     9    14    15   ar
    10    15    16    1
    11    15    17   ar
    12    17    18   ar
    13    18    19    1
    14     6     7   ar
    15     7    20    1
    16    20    21    1
    17     5     8    1
    18     8     9    2
    19     8    10   am
    20    10    24    1
    21    24    25    1
    22    25    26   am
    23    25    27    2
    24    10    11    1
    25     7     2   ar
    26    11     4    1
    27    18    12   ar
    28    21    22    1
    29    21    23    1
    30    26    28    1
    31    26    29    1
@<TRIPOS>MOLECULE
*****
 29 31 0 0 0
SMALL
GASTEIGER

@<TRIPOS>ATOM
      1 C          63.8485   81.6257   13.8296 C.3     1  UNL1        0.0518
      2 C          63.7333   83.1002   13.5787 C.ar    1  UNL1        0.0563
      3 N          64.3497   84.0746   14.5381 N.ar    1  UNL1       -0.2524
      4 C          64.2346   85.5489   14.2873 C.ar    1  UNL1        0.0830
      5 C          63.5030   86.0489   13.0770 C.ar    1  UNL1        0.0686
      6 C          62.8866   85.0745   12.1175 C.ar    1  UNL1        0.0048
      7 C          63.0018   83.6001   12.3685 C.ar    1  UNL1        0.0072
      8 C          63.5521   87.5480   13.0920 C.2     1  UNL1        0.2509
      9 O          62.9458   88.4604   12.0673 O.2     1  UNL1       -0.2698
     10 N          64.3141   87.9746   14.3116 N.am    1  UNL1       -0.2620
     11 C          64.7359   86.7391   15.0503 C.3     1  UNL1        0.1401
     12 C          62.1549   85.5744   10.9072 C.ar    1  UNL1        0.0106
     13 C          60.9039   86.3859   11.0692 C.ar    1  UNL1        0.0017
     14 C          60.1722   86.8859    9.8589 C.ar    1  UNL1        0.0114
     15 C          60.6917   86.5742    8.4867 C.ar    1  UNL1        0.0585
     16 CL         59.9600   87.0742    7.2764 Cl      1  UNL1       -0.0822
     17 C          61.9427   85.7627    8.3247 C.ar    1  UNL1        0.0228
     18 C          62.6744   85.2628    9.5350 C.ar    1  UNL1        0.0585
     19 CL         63.9255   84.4513    9.3730 Cl      1  UNL1       -0.0822
     20 C          62.3853   82.6256   11.4090 C.3     1  UNL1        0.0934
     21 N          63.2368   81.5812   10.7500 N.3     1  UNL1       -0.3174
     22 H          63.9075   82.0323   10.1279 H       1  UNL1        0.1192
     23 H          62.6442   80.9499   10.2109 H       1  UNL1        0.1192
     24 C          64.6035   89.3884   14.7207 C.3     1  UNL1        0.1794
     25 C          63.6168   90.1427   15.5618 C.2     1  UNL1        0.2397
     26 N          62.4173   89.4386   16.1235 N.am    1  UNL1       -0.3274
     27 O          63.8296   91.6010   15.8411 O.2     1  UNL1       -0.2735
     28 H          62.2777   88.4815   15.9402 H       1  UNL1        0.1450
     29 H          61.7697   89.9337   16.6756 H       1  UNL1        0.1450
@<TRIPOS>BOND
     1     1     2    1
     2     2     3   ar
     3     3     4   ar
     4     4     5   ar
     5     5     6   ar
     6     6    12    1
     7    12    13   ar
     8    13    14   ar
     9    14    15   ar
    10    15    16    1
    11    15    17   ar
    12    17    18   ar
    13    18    19    1
    14     6     7   ar
    15     7    20    1
    16    20    21    1
    17     5     8    1
    18     8     9    2
    19     8    10   am
    20    10    24    1
    21    24    25    1
    22    25    26   am
    23    25    27    2
    24    10    11    1
    25     7     2   ar
    26    11     4    1
    27    18    12   ar
    28    21    22    1
    29    21    23    1
    30    26    28    1
    31    26    29    1
@<TRIPOS>MOLECULE
*****
 29 31 0 0 0
SMALL
GASTEIGER

@<TRIPOS>ATOM
      1 C          60.8951   89.1239    9.3234 C.3     1  UNL1        0.0518
      2 C          61.6987   88.5886   10.4713 C.ar    1  UNL1        0.0563
      3 N          61.7805   87.1090   10.7041 N.ar    1  UNL1       -0.2524
      4 C          62.5840   86.5737   11.8520 C.ar    1  UNL1        0.0830
      5 C          63.3059   87.5179   12.7671 C.ar    1  UNL1        0.0686
      6 C          63.2241   88.9974   12.5343 C.ar    1  UNL1        0.0048
      7 C          62.4205   89.5327   11.3864 C.ar    1  UNL1        0.0072
      8 C          64.0151   86.7033   13.8080 C.2     1  UNL1        0.2509
      9 O          64.8595   87.2419   14.9247 O.2     1  UNL1       -0.2698
     10 N          63.7316   85.2557   13.5362 N.am    1  UNL1       -0.2620
     11 C          62.8472   85.1755   12.3273 C.3     1  UNL1        0.1401
     12 C          63.9459   89.9418   13.4494 C.ar    1  UNL1        0.0106
     13 C          65.1606   90.6754   12.9635 C.ar    1  UNL1        0.0017
     14 C          65.8824   91.6197   13.8785 C.ar    1  UNL1        0.0114
     15 C          65.3895   91.8303   15.2794 C.ar    1  UNL1        0.0585
     16 CL         66.1113   92.7746   16.1944 Cl      1  UNL1       -0.0822
     17 C          64.1748   91.0966   15.7654 C.ar    1  UNL1        0.0228
     18 C          63.4529   90.1523   14.8503 C.ar    1  UNL1        0.0585
     19 CL         62.2382   89.4186   15.3363 Cl      1  UNL1       -0.0822
     20 C          62.3387   91.0124   11.1536 C.3     1  UNL1        0.0934
     21 N          63.1137   91.6393   10.0327 N.3     1  UNL1       -0.3174
     22 H          64.1127   91.5507   10.2190 H       1  UNL1        0.1192
     23 H          62.8677   92.6264    9.9597 H       1  UNL1        0.1192
     24 C          64.2427   84.0924   14.3333 C.3     1  UNL1        0.1794
     25 C          63.6239   82.7366   14.1629 C.2     1  UNL1        0.2397
     26 N          62.5177   82.2971   15.0757 N.am    1  UNL1       -0.3274
     27 O          64.1112   81.8205   13.0799 O.2     1  UNL1       -0.2735
     28 H          62.1978   82.8984   15.7866 H       1  UNL1        0.1450
     29 H          62.1115   81.4073   14.9639 H       1  UNL1        0.1450
@<TRIPOS>BOND
     1     1     2    1
     2     2     3   ar
     3     3     4   ar
     4     4     5   ar
     5     5     6   ar
     6     6    12    1
     7    12    13   ar
     8    13    14   ar
     9    14    15   ar
    10    15    16    1
    11    15    17   ar
    12    17    18   ar
    13    18    19    1
    14     6     7   ar
    15     7    20    1
    16    20    21    1
    17     5     8    1
    18     8     9    2
    19     8    10   am
    20    10    24    1
    21    24    25    1
    22    25    26   am
    23    25    27    2
    24    10    11    1
    25     7     2   ar
    26    11     4    1
    27    18    12   ar
    28    21    22    1
    29    21    23    1
    30    26    28    1
    31    26    29    1
@<TRIPOS>MOLECULE
*****
 29 31 0 0 0
SMALL
GASTEIGER

@<TRIPOS>ATOM
      1 C          64.0697   92.1531   12.3414 C.3     1  UNL1        0.0518
      2 C          63.7996   90.6841   12.4806 C.ar    1  UNL1        0.0563
      3 N          64.3088   89.9381   13.6781 N.ar    1  UNL1       -0.2524
      4 C          64.0387   88.4692   13.8173 C.ar    1  UNL1        0.0830
      5 C          63.2594   87.7463   12.7590 C.ar    1  UNL1        0.0686
      6 C          62.7502   88.4923   11.5614 C.ar    1  UNL1        0.0048
      7 C          63.0203   89.9613   11.4223 C.ar    1  UNL1        0.0072
      8 C          63.1498   86.3067   13.1659 C.2     1  UNL1        0.2509
      9 O          62.4513   85.2241   12.3978 O.2     1  UNL1       -0.2698
     10 N          63.8614   86.1399   14.4757 N.am    1  UNL1       -0.2620
     11 C          64.4108   87.4764   14.8784 C.3     1  UNL1        0.1401
     12 C          61.9709   87.7695   10.5030 C.ar    1  UNL1        0.0106
     13 C          62.6896   86.9704    9.4566 C.ar    1  UNL1        0.0017
     14 C          61.9104   86.2476    8.3982 C.ar    1  UNL1        0.0114
     15 C          60.4124   86.3239    8.3861 C.ar    1  UNL1        0.0585
     16 CL         59.6332   85.6010    7.3277 Cl      1  UNL1       -0.0822
     17 C          59.6937   87.1230    9.4324 C.ar    1  UNL1        0.0228
     18 C          60.4729   87.8458   10.4909 C.ar    1  UNL1        0.0585
     19 CL         59.7541   88.6450   11.5372 Cl      1  UNL1       -0.0822
     20 C          62.5111   90.7074   10.2246 C.3     1  UNL1        0.0934
     21 N          63.2619   91.8989    9.7083 N.3     1  UNL1       -0.3174
     22 H          63.2308   92.6468   10.4012 H       1  UNL1        0.1192
     23 H          62.8330   92.2211    8.8407 H       1  UNL1        0.1192
     24 C          63.9995   84.8611   15.2475 C.3     1  UNL1        0.1794
     25 C          62.8037   84.2622   15.9268 C.2     1  UNL1        0.2397
     26 N          62.2885   82.9216   15.4938 N.am    1  UNL1       -0.3274
     27 O          62.1231   85.0038   17.0388 O.2     1  UNL1       -0.2735
     28 H          62.7352   82.4349   14.7639 H       1  UNL1        0.1450
     29 H          61.5037   82.5285   15.9396 H       1  UNL1        0.1450
@<TRIPOS>BOND
     1     1     2    1
     2     2     3   ar
     3     3     4   ar
     4     4     5   ar
     5     5     6   ar
     6     6    12    1
     7    12    13   ar
     8    13    14   ar
     9    14    15   ar
    10    15    16    1
    11    15    17   ar
    12    17    18   ar
    13    18    19    1
    14     6     7   ar
    15     7    20    1
    16    20    21    1
    17     5     8    1
    18     8     9    2
    19     8    10   am
    20    10    24    1
    21    24    25    1
    22    25    26   am
    23    25    27    2
    24    10    11    1
    25     7     2   ar
    26    11     4    1
    27    18    12   ar
    28    21    22    1
    29    21    23    1
    30    26    28    1
    31    26    29    1
@<TRIPOS>MOLECULE
*****
 29 31 0 0 0
SMALL
GASTEIGER

@<TRIPOS>ATOM
      1 C          64.7320   91.7157   16.8386 C.3     1  UNL1        0.0518
      2 C          64.7052   91.7697   15.3397 C.ar    1  UNL1        0.0563
      3 N          65.6384   92.6863   14.6055 N.ar    1  UNL1       -0.2524
      4 C          65.6116   92.7403   13.1068 C.ar    1  UNL1        0.0830
      5 C          64.6517   91.8778   12.3422 C.ar    1  UNL1        0.0686
      6 C          63.7186   90.9611   13.0764 C.ar    1  UNL1        0.0048
      7 C          63.7454   90.9071   14.5752 C.ar    1  UNL1        0.0072
      8 C          64.8527   92.1441   10.8798 C.2     1  UNL1        0.2509
      9 O          64.1015   91.4970    9.7543 O.2     1  UNL1       -0.2698
     10 N          65.9369   93.1714   10.7406 N.am    1  UNL1       -0.2620
     11 C          66.4059   93.5398   12.1169 C.3     1  UNL1        0.1401
     12 C          62.7586   90.0985   12.3119 C.ar    1  UNL1        0.0106
     13 C          61.6186   90.7250   11.5649 C.ar    1  UNL1        0.0017
     14 C          60.6587   89.8625   10.8004 C.ar    1  UNL1        0.0114
     15 C          60.8387   88.3735   10.7829 C.ar    1  UNL1        0.0585
     16 CL         59.8787   87.5110   10.0184 Cl      1  UNL1       -0.0822
     17 C          61.9787   87.7470   11.5298 C.ar    1  UNL1        0.0228
     18 C          62.9387   88.6095   12.2943 C.ar    1  UNL1        0.0585
     19 CL         64.0786   87.9830   13.0413 Cl      1  UNL1       -0.0822
     20 C          62.8122   89.9905   15.3095 C.3     1  UNL1        0.0934
     21 N          63.3559   88.8118   16.0613 N.3     1  UNL1       -0.3174
     22 H          63.7646   88.1481   15.4034 H       1  UNL1        0.1192
     23 H          62.6006   88.3591   16.5760 H       1  UNL1        0.1192
     24 C          66.4602   93.7318    9.4513 C.3     1  UNL1        0.1794
     25 C          67.8032   94.3987    9.4137 C.2     1  UNL1        0.2397
     26 N          67.9086   95.8536    9.0640 N.am    1  UNL1       -0.3274
     27 O          69.0409   93.6108    9.7259 O.2     1  UNL1       -0.2735
     28 H          67.0962   96.3707    8.8591 H       1  UNL1        0.1450
     29 H          68.7900   96.2913    9.0393 H       1  UNL1        0.1450
@<TRIPOS>BOND
     1     1     2    1
     2     2     3   ar
     3     3     4   ar
     4     4     5   ar
     5     5     6   ar
     6     6    12    1
     7    12    13   ar
     8    13    14   ar
     9    14    15   ar
    10    15    16    1
    11    15    17   ar
    12    17    18   ar
    13    18    19    1
    14     6     7   ar
    15     7    20    1
    16    20    21    1
    17     5     8    1
    18     8     9    2
    19     8    10   am
    20    10    24    1
    21    24    25    1
    22    25    26   am
    23    25    27    2
    24    10    11    1
    25     7     2   ar
    26    11     4    1
    27    18    12   ar
    28    21    22    1
    29    21    23    1
    30    26    28    1
    31    26    29    1
@<TRIPOS>MOLECULE
*****
 29 31 0 0 0
SMALL
GASTEIGER

@<TRIPOS>ATOM
      1 C          63.3890   80.6669   11.2053 C.3     1  UNL1        0.0518
      2 C          63.1774   82.1412   11.3839 C.ar    1  UNL1        0.0563
      3 N          62.9856   83.0220   10.1849 N.ar    1  UNL1       -0.2524
      4 C          62.7740   84.4962   10.3635 C.ar    1  UNL1        0.0830
      5 C          62.7542   85.0897   11.7409 C.ar    1  UNL1        0.0686
      6 C          62.9460   84.2089   12.9399 C.ar    1  UNL1        0.0048
      7 C          63.1576   82.7346   12.7613 C.ar    1  UNL1        0.0072
      8 C          62.5266   86.5662   11.6063 C.2     1  UNL1        0.2509
      9 O          62.4358   87.5507   12.7343 O.2     1  UNL1       -0.2698
     10 N          62.4057   86.8852   10.1456 N.am    1  UNL1       -0.2620
     11 C          62.5586   85.6059    9.3775 C.3     1  UNL1        0.1401
     12 C          62.9262   84.8023   14.3174 C.ar    1  UNL1        0.0106
     13 C          61.6327   84.9100   15.0691 C.ar    1  UNL1        0.0017
     14 C          61.6128   85.5034   16.4466 C.ar    1  UNL1        0.0114
     15 C          62.8866   85.9891   17.0723 C.ar    1  UNL1        0.0585
     16 CL         62.8667   86.5825   18.4498 Cl      1  UNL1       -0.0822
     17 C          64.1801   85.8814   16.3206 C.ar    1  UNL1        0.0228
     18 C          64.2000   85.2881   14.9431 C.ar    1  UNL1        0.0585
     19 CL         65.4936   85.1804   14.1914 Cl      1  UNL1       -0.0822
     20 C          63.3494   81.8538   13.9603 C.3     1  UNL1        0.0934
     21 N          62.1572   81.2942   14.6782 N.3     1  UNL1       -0.3174
     22 H          61.6310   82.0550   15.1078 H       1  UNL1        0.1192
     23 H          62.4692   80.6459   15.4013 H       1  UNL1        0.1192
     24 C          62.1727   88.2449    9.5565 C.3     1  UNL1        0.1794
     25 C          60.7736   88.7550    9.3773 C.2     1  UNL1        0.2397
     26 N          60.4471   90.1811    9.7085 N.am    1  UNL1       -0.3274
     27 O          59.7009   87.8391    8.8670 O.2     1  UNL1       -0.2735
     28 H          61.1512   90.7822   10.0435 H       1  UNL1        0.1450
     29 H          59.5288   90.5160    9.5910 H       1  UNL1        0.1450
@<TRIPOS>BOND
     1     1     2    1
     2     2     3   ar
     3     3     4   ar
     4     4     5   ar
     5     5     6   ar
     6     6    12    1
     7    12    13   ar
     8    13    14   ar
     9    14    15   ar
    10    15    16    1
    11    15    17   ar
    12    17    18   ar
    13    18    19    1
    14     6     7   ar
    15     7    20    1
    16    20    21    1
    17     5     8    1
    18     8     9    2
    19     8    10   am
    20    10    24    1
    21    24    25    1
    22    25    26   am
    23    25    27    2
    24    10    11    1
    25     7     2   ar
    26    11     4    1
    27    18    12   ar
    28    21    22    1
    29    21    23    1
    30    26    28    1
    31    26    29    1
@<TRIPOS>MOLECULE
*****
 29 31 0 0 0
SMALL
GASTEIGER

@<TRIPOS>ATOM
      1 C          63.3526   93.2164    2.2421 C.3     1  UNL1        0.0518
      2 C          62.8204   93.3727    0.8483 C.ar    1  UNL1        0.0563
      3 N          63.7658   93.4107   -0.3156 N.ar    1  UNL1       -0.2524
      4 C          63.2337   93.5669   -1.7093 C.ar    1  UNL1        0.0830
      5 C          61.7561   93.6851   -1.9390 C.ar    1  UNL1        0.0686
      6 C          60.8107   93.6471   -0.7751 C.ar    1  UNL1        0.0048
      7 C          61.3429   93.4909    0.6186 C.ar    1  UNL1        0.0072
      8 C          61.5263   93.8283   -3.4144 C.2     1  UNL1        0.2509
      9 O          60.1948   93.9754   -4.0892 O.2     1  UNL1       -0.2698
     10 N          62.8620   93.7986   -4.0965 N.am    1  UNL1       -0.2620
     11 C          63.9171   93.6370   -3.0426 C.3     1  UNL1        0.1401
     12 C          59.3330   93.7653   -1.0048 C.ar    1  UNL1        0.0106
     13 C          58.5115   92.5347   -1.2506 C.ar    1  UNL1        0.0017
     14 C          57.0339   92.6528   -1.4802 C.ar    1  UNL1        0.0114
     15 C          56.3779   94.0016   -1.4642 C.ar    1  UNL1        0.0585
     16 CL         54.9003   94.1198   -1.6939 Cl      1  UNL1       -0.0822
     17 C          57.1995   95.2323   -1.2184 C.ar    1  UNL1        0.0228
     18 C          58.6771   95.1142   -0.9887 C.ar    1  UNL1        0.0585
     19 CL         59.4987   96.3449   -0.7430 Cl      1  UNL1       -0.0822
     20 C          60.3974   93.4529    1.7826 C.3     1  UNL1        0.0934
     21 N          60.0773   94.7132    2.5302 N.3     1  UNL1       -0.3174
     22 H          60.9160   95.0508    3.0025 H       1  UNL1        0.1192
     23 H          59.3511   94.5237    3.2210 H       1  UNL1        0.1192
     24 C          63.1006   93.9107   -5.5731 C.3     1  UNL1        0.1794
     25 C          64.2103   93.1318   -6.2148 C.2     1  UNL1        0.2397
     26 N          64.2571   91.6390   -6.0750 N.am    1  UNL1       -0.3274
     27 O          65.2732   93.8456   -6.9963 O.2     1  UNL1       -0.2735
     28 H          63.5594   91.1706   -5.5621 H       1  UNL1        0.1450
     29 H          64.9854   91.1278   -6.4962 H       1  UNL1        0.1450
@<TRIPOS>BOND
     1     1     2    1
     2     2     3   ar
     3     3     4   ar
     4     4     5   ar
     5     5     6   ar
     6     6    12    1
     7    12    13   ar
     8    13    14   ar
     9    14    15   ar
    10    15    16    1
    11    15    17   ar
    12    17    18   ar
    13    18    19    1
    14     6     7   ar
    15     7    20    1
    16    20    21    1
    17     5     8    1
    18     8     9    2
    19     8    10   am
    20    10    24    1
    21    24    25    1
    22    25    26   am
    23    25    27    2
    24    10    11    1
    25     7     2   ar
    26    11     4    1
    27    18    12   ar
    28    21    22    1
    29    21    23    1
    30    26    28    1
    31    26    29    1
