@<TRIPOS>MOLECULE
*****
 49 54 0 0 0
SMALL
GASTEIGER

@<TRIPOS>ATOM
      1 O          60.4907   86.2734    8.6401 O.2     1  UNL1       -0.2863
      2 C          60.7352   87.6800    9.1004 C.2     1  UNL1        0.2034
      3 C          61.6008   87.9375   10.2980 C.ar    1  UNL1        0.0949
      4 C          62.1329   86.7870   11.1001 C.ar    1  UNL1        0.0055
      5 C          62.9985   87.0444   12.2977 C.ar    1  UNL1       -0.0002
      6 C          63.3321   88.4524   12.6933 C.ar    1  UNL1        0.0746
      7 N          62.8000   89.6028   11.8913 N.ar    1  UNL1       -0.2901
      8 C          61.9343   89.3454   10.6936 C.ar    1  UNL1        0.2642
      9 O          61.4023   90.4958    9.8916 O.2     1  UNL1       -0.2669
     10 C          63.5306   85.8940   13.0998 C.3     1  UNL1        0.0543
     11 C          63.3607   84.4897   12.6008 C.ar    1  UNL1       -0.0133
     12 C          64.1009   84.0332   11.3787 C.ar    1  UNL1        0.0259
     13 C          63.9310   82.6289   10.8797 C.ar    1  UNL1        0.1421
     14 F          64.6712   82.1725    9.6575 F       1  UNL1       -0.2041
     15 C          63.0208   81.6810   11.6029 C.ar    1  UNL1        0.0592
     16 C          62.2805   82.1374   12.8251 C.ar    1  UNL1        0.1421
     17 F          61.3703   81.1895   13.5483 F       1  UNL1       -0.2041
     18 C          62.4504   83.5417   13.3241 C.ar    1  UNL1        0.0259
     19 C          63.1335   91.0107   12.2869 C.3     1  UNL1        0.1380
     20 C          64.5246   91.3559   12.7294 C.ar    1  UNL1        0.0280
     21 C          64.9952   90.9633   14.0984 C.ar    1  UNL1       -0.0002
     22 C          66.3863   91.3085   14.5409 C.ar    1  UNL1       -0.0001
     23 C          67.3067   92.0463   13.6143 C.ar    1  UNL1        0.0023
     24 C          66.8359   92.4390   12.2452 C.ar    1  UNL1        0.0294
     25 C          65.4449   92.0938   11.8028 C.ar    1  UNL1        0.1380
     26 F          64.9742   92.4865   10.4338 F       1  UNL1       -0.2044
     27 C          60.1141   88.8291    8.3630 C.2     1  UNL1        0.0835
     28 C          59.2765   88.5738    7.1450 C.2     1  UNL1        0.1910
     29 O          59.0602   87.1694    6.6644 O.2     1  UNL1       -0.5018
     30 H          59.4482   86.4516    7.1250 H       1  UNL1        0.2924
     31 C          58.6554   89.7229    6.4076 C.2     1  UNL1        0.2831
     32 O          57.2157   90.0734    6.6408 O.2     1  UNL1       -0.2666
     33 N          59.4740   90.5215    5.4369 N.am    1  UNL1       -0.2701
     34 C          58.8529   91.6706    4.6995 C.3     1  UNL1        0.1152
     35 C          59.6715   92.4692    3.7289 C.3     1  UNL1        0.1123
     36 N          61.1112   92.1187    3.4956 N.pl3   1  UNL1       -0.3041
     37 C          61.7323   90.9696    4.2330 C.3     1  UNL1        0.1123
     38 C          60.9137   90.1710    5.2036 C.3     1  UNL1        0.1152
     39 C          61.9298   92.9173    2.5250 C.ar    1  UNL1        0.0480
     40 C          63.4260   92.8130    2.5419 C.ar    1  UNL1        0.0160
     41 C          64.2446   93.6117    1.5712 C.ar    1  UNL1        0.0188
     42 C          63.5668   94.5146    0.5836 C.ar    1  UNL1        0.0642
     43 C          62.0705   94.6189    0.5667 C.ar    1  UNL1        0.0188
     44 C          61.2520   93.8202    1.5373 C.ar    1  UNL1        0.0160
     45 N          64.3853   95.3132   -0.3870 N.ar    1  UNL1       -0.3036
     46 C          65.4672   96.2903   -0.0334 C.ar    1  UNL1        0.0802
     47 C          66.0162   96.8559   -1.3096 C.ar    1  UNL1        0.0205
     48 C          65.2736   96.2284   -2.4519 C.ar    1  UNL1        0.0205
     49 C          64.2657   95.2750   -1.8818 C.ar    1  UNL1        0.0802
@<TRIPOS>BOND
     1     1     2    2
     2     2    27    1
     3    27    28    2
     4    28    29    1
     5    28    31    1
     6    31    32    2
     7    31    33   am
     8    33    34    1
     9    34    35    1
    10    35    36    1
    11    36    39    1
    12    39    40   ar
    13    40    41   ar
    14    41    42   ar
    15    42    45    1
    16    45    46   ar
    17    46    47   ar
    18    47    48   ar
    19    48    49   ar
    20    42    43   ar
    21    43    44   ar
    22    36    37    1
    23    37    38    1
    24     2     3    1
    25     3     4   ar
    26     4     5   ar
    27     5    10    1
    28    10    11    1
    29    11    12   ar
    30    12    13   ar
    31    13    14    1
    32    13    15   ar
    33    15    16   ar
    34    16    17    1
    35    16    18   ar
    36     5     6   ar
    37     6     7   ar
    38     7    19    1
    39    19    20    1
    40    20    21   ar
    41    21    22   ar
    42    22    23   ar
    43    23    24   ar
    44    24    25   ar
    45    25    26    1
    46     7     8   ar
    47     8     9    2
    48    38    33    1
    49     8     3   ar
    50    44    39   ar
    51    18    11   ar
    52    25    20   ar
    53    49    45   ar
    54    29    30    1
@<TRIPOS>MOLECULE
*****
 49 54 0 0 0
SMALL
GASTEIGER

@<TRIPOS>ATOM
      1 O          59.7982   86.4785    8.6146 O.2     1  UNL1       -0.2863
      2 C          60.2662   87.8620    8.9563 C.2     1  UNL1        0.2034
      3 C          61.2924   88.0623   10.0318 C.ar    1  UNL1        0.0949
      4 C          61.8394   89.4330   10.3007 C.ar    1  UNL1        0.0055
      5 C          62.8656   89.6333   11.3762 C.ar    1  UNL1       -0.0002
      6 C          63.3449   88.4630   12.1829 C.ar    1  UNL1        0.0746
      7 N          62.7979   87.0924   11.9141 N.ar    1  UNL1       -0.2901
      8 C          61.7717   86.8921   10.8385 C.ar    1  UNL1        0.2642
      9 O          61.2248   85.5215   10.5697 O.2     1  UNL1       -0.2669
     10 C          63.4125   91.0039   11.6450 C.3     1  UNL1        0.0543
     11 C          64.2499   91.2514   12.8647 C.ar    1  UNL1       -0.0133
     12 C          63.6657   91.0433   14.2304 C.ar    1  UNL1        0.0259
     13 C          64.5031   91.2907   15.4500 C.ar    1  UNL1        0.1421
     14 F          63.9189   91.0826   16.8158 F       1  UNL1       -0.2041
     15 C          65.9247   91.7462   15.3039 C.ar    1  UNL1        0.0592
     16 C          66.5090   91.9544   13.9381 C.ar    1  UNL1        0.1421
     17 F          67.9307   92.4099   13.7920 F       1  UNL1       -0.2041
     18 C          65.6716   91.7069   12.7185 C.ar    1  UNL1        0.0259
     19 C          63.2772   85.9222   12.7208 C.3     1  UNL1        0.1380
     20 C          63.3062   84.5522   12.1107 C.ar    1  UNL1        0.0280
     21 C          64.0141   84.3263   10.8077 C.ar    1  UNL1       -0.0002
     22 C          64.0430   82.9562   10.1976 C.ar    1  UNL1       -0.0001
     23 C          63.3641   81.8121   10.8905 C.ar    1  UNL1        0.0023
     24 C          62.6562   82.0381   12.1935 C.ar    1  UNL1        0.0294
     25 C          62.6272   83.4081   12.8036 C.ar    1  UNL1        0.1380
     26 F          61.9193   83.6340   14.1066 F       1  UNL1       -0.2044
     27 C          59.7081   89.0452    8.2226 C.2     1  UNL1        0.0835
     28 C          59.1410   88.8740    6.8445 C.2     1  UNL1        0.1910
     29 O          59.1321   87.5194    6.2001 O.2     1  UNL1       -0.5018
     30 H          59.4808   86.7803    6.6585 H       1  UNL1        0.2924
     31 C          58.5828   90.0572    6.1107 C.2     1  UNL1        0.2831
     32 O          57.1601   90.4760    6.3353 O.2     1  UNL1       -0.2666
     33 N          59.4474   90.8216    5.1524 N.am    1  UNL1       -0.2701
     34 C          58.8892   92.0048    4.4187 C.3     1  UNL1        0.1152
     35 C          59.7537   92.7691    3.4604 C.3     1  UNL1        0.1123
     36 N          61.1765   92.3503    3.2359 N.pl3   1  UNL1       -0.3041
     37 C          61.7346   91.1670    3.9696 C.3     1  UNL1        0.1123
     38 C          60.8701   90.4027    4.9279 C.3     1  UNL1        0.1152
     39 C          62.0410   93.1147    2.2776 C.ar    1  UNL1        0.0480
     40 C          61.4763   94.2841    1.5269 C.ar    1  UNL1        0.0160
     41 C          62.3409   95.0485    0.5686 C.ar    1  UNL1        0.0188
     42 C          63.7701   94.6434    0.3610 C.ar    1  UNL1        0.0642
     43 C          64.3349   93.4739    1.1118 C.ar    1  UNL1        0.0188
     44 C          63.4703   92.7096    2.0700 C.ar    1  UNL1        0.0160
     45 N          64.6347   95.4077   -0.5972 N.ar    1  UNL1       -0.3036
     46 C          64.4761   95.4481   -2.0883 C.ar    1  UNL1        0.0802
     47 C          65.5530   96.3312   -2.6453 C.ar    1  UNL1        0.0205
     48 C          66.3772   96.8367   -1.4984 C.ar    1  UNL1        0.0205
     49 C          65.8096   96.2660   -0.2327 C.ar    1  UNL1        0.0802
@<TRIPOS>BOND
     1     1     2    2
     2     2    27    1
     3    27    28    2
     4    28    29    1
     5    28    31    1
     6    31    32    2
     7    31    33   am
     8    33    34    1
     9    34    35    1
    10    35    36    1
    11    36    39    1
    12    39    40   ar
    13    40    41   ar
    14    41    42   ar
    15    42    45    1
    16    45    46   ar
    17    46    47   ar
    18    47    48   ar
    19    48    49   ar
    20    42    43   ar
    21    43    44   ar
    22    36    37    1
    23    37    38    1
    24     2     3    1
    25     3     4   ar
    26     4     5   ar
    27     5    10    1
    28    10    11    1
    29    11    12   ar
    30    12    13   ar
    31    13    14    1
    32    13    15   ar
    33    15    16   ar
    34    16    17    1
    35    16    18   ar
    36     5     6   ar
    37     6     7   ar
    38     7    19    1
    39    19    20    1
    40    20    21   ar
    41    21    22   ar
    42    22    23   ar
    43    23    24   ar
    44    24    25   ar
    45    25    26    1
    46     7     8   ar
    47     8     9    2
    48    38    33    1
    49     8     3   ar
    50    44    39   ar
    51    18    11   ar
    52    25    20   ar
    53    49    45   ar
    54    29    30    1
@<TRIPOS>MOLECULE
*****
 49 54 0 0 0
SMALL
GASTEIGER

@<TRIPOS>ATOM
      1 O          60.4505   86.3123    8.5064 O.2     1  UNL1       -0.2863
      2 C          60.6989   87.7270    8.9388 C.2     1  UNL1        0.2034
      3 C          61.5947   88.0074   10.1087 C.ar    1  UNL1        0.0949
      4 C          61.8787   89.4236   10.5135 C.ar    1  UNL1        0.0055
      5 C          62.7746   89.7039   11.6834 C.ar    1  UNL1       -0.0002
      6 C          63.3865   88.5682   12.4486 C.ar    1  UNL1        0.0746
      7 N          63.1026   87.1520   12.0439 N.ar    1  UNL1       -0.2901
      8 C          62.2067   86.8716   10.8739 C.ar    1  UNL1        0.2642
      9 O          61.9227   85.4554   10.4692 O.2     1  UNL1       -0.2669
     10 C          63.0585   91.1201   12.0881 C.3     1  UNL1        0.0543
     11 C          64.4714   91.5623   12.3292 C.ar    1  UNL1       -0.0133
     12 C          65.2311   92.2694   11.2462 C.ar    1  UNL1        0.0259
     13 C          66.6441   92.7116   11.4873 C.ar    1  UNL1        0.1421
     14 F          67.4037   93.4187   10.4043 F       1  UNL1       -0.2041
     15 C          67.2973   92.4468   12.8113 C.ar    1  UNL1        0.0592
     16 C          66.5376   91.7396   13.8944 C.ar    1  UNL1        0.1421
     17 F          67.1908   91.4748   15.2184 F       1  UNL1       -0.2041
     18 C          65.1247   91.2974   13.6533 C.ar    1  UNL1        0.0259
     19 C          63.7145   86.0162   12.8091 C.3     1  UNL1        0.1380
     20 C          63.3826   85.8239   14.2592 C.ar    1  UNL1        0.0280
     21 C          63.8097   86.8481   15.2685 C.ar    1  UNL1       -0.0002
     22 C          63.4779   86.6558   16.7187 C.ar    1  UNL1       -0.0001
     23 C          62.7190   85.4393   17.1595 C.ar    1  UNL1        0.0023
     24 C          62.2919   84.4152   16.1501 C.ar    1  UNL1        0.0294
     25 C          62.6238   84.6075   14.7000 C.ar    1  UNL1        0.1380
     26 F          62.1967   83.5833   13.6907 F       1  UNL1       -0.2044
     27 C          60.0515   88.8613    8.2012 C.2     1  UNL1        0.0835
     28 C          59.0272   88.5798    7.1420 C.2     1  UNL1        0.1910
     29 O          58.6505   87.1639    6.8205 O.2     1  UNL1       -0.5018
     30 H          59.0549   86.4554    7.2812 H       1  UNL1        0.2924
     31 C          58.3798   89.7141    6.4044 C.2     1  UNL1        0.2831
     32 O          56.9261   90.0156    6.6187 O.2     1  UNL1       -0.2666
     33 N          59.1861   90.5471    5.4525 N.am    1  UNL1       -0.2701
     34 C          58.5387   91.6815    4.7149 C.3     1  UNL1        0.1152
     35 C          59.3449   92.5144    3.7630 C.3     1  UNL1        0.1123
     36 N          60.7986   92.2130    3.5487 N.pl3   1  UNL1       -0.3041
     37 C          61.4460   91.0786    4.2863 C.3     1  UNL1        0.1123
     38 C          60.6398   90.2457    5.2382 C.3     1  UNL1        0.1152
     39 C          61.6049   93.0460    2.5968 C.ar    1  UNL1        0.0480
     40 C          63.0736   92.7887    2.4337 C.ar    1  UNL1        0.0160
     41 C          63.8799   93.6217    1.4818 C.ar    1  UNL1        0.0188
     42 C          63.2174   94.7119    0.6929 C.ar    1  UNL1        0.0642
     43 C          61.7485   94.9692    0.8560 C.ar    1  UNL1        0.0188
     44 C          60.9424   94.1362    1.8079 C.ar    1  UNL1        0.0160
     45 N          64.0235   95.5449   -0.2590 N.ar    1  UNL1       -0.3036
     46 C          63.5591   96.0640   -1.5875 C.ar    1  UNL1        0.0802
     47 C          64.6842   96.8450   -2.1991 C.ar    1  UNL1        0.0205
     48 C          65.8441   96.8085   -1.2486 C.ar    1  UNL1        0.0205
     49 C          65.4358   96.0050   -0.0496 C.ar    1  UNL1        0.0802
@<TRIPOS>BOND
     1     1     2    2
     2     2    27    1
     3    27    28    2
     4    28    29    1
     5    28    31    1
     6    31    32    2
     7    31    33   am
     8    33    34    1
     9    34    35    1
    10    35    36    1
    11    36    39    1
    12    39    40   ar
    13    40    41   ar
    14    41    42   ar
    15    42    45    1
    16    45    46   ar
    17    46    47   ar
    18    47    48   ar
    19    48    49   ar
    20    42    43   ar
    21    43    44   ar
    22    36    37    1
    23    37    38    1
    24     2     3    1
    25     3     4   ar
    26     4     5   ar
    27     5    10    1
    28    10    11    1
    29    11    12   ar
    30    12    13   ar
    31    13    14    1
    32    13    15   ar
    33    15    16   ar
    34    16    17    1
    35    16    18   ar
    36     5     6   ar
    37     6     7   ar
    38     7    19    1
    39    19    20    1
    40    20    21   ar
    41    21    22   ar
    42    22    23   ar
    43    23    24   ar
    44    24    25   ar
    45    25    26    1
    46     7     8   ar
    47     8     9    2
    48    38    33    1
    49     8     3   ar
    50    44    39   ar
    51    18    11   ar
    52    25    20   ar
    53    49    45   ar
    54    29    30    1
@<TRIPOS>MOLECULE
*****
 49 54 0 0 0
SMALL
GASTEIGER

@<TRIPOS>ATOM
      1 O          58.9940   86.2823    8.6364 O.2     1  UNL1       -0.2863
      2 C          59.5982   87.6208    8.9419 C.2     1  UNL1        0.2034
      3 C          60.7113   87.7308    9.9413 C.ar    1  UNL1        0.0949
      4 C          61.5813   86.5431   10.2287 C.ar    1  UNL1        0.0055
      5 C          62.6944   86.6530   11.2281 C.ar    1  UNL1       -0.0002
      6 C          62.9375   87.9506   11.9403 C.ar    1  UNL1        0.0746
      7 N          62.0675   89.1383   11.6530 N.ar    1  UNL1       -0.2901
      8 C          60.9544   89.0284   10.6535 C.ar    1  UNL1        0.2642
      9 O          60.0844   90.2160   10.3662 O.2     1  UNL1       -0.2669
     10 C          63.5644   85.4654   11.5154 C.3     1  UNL1        0.0543
     11 C          63.1103   84.4220   12.4927 C.ar    1  UNL1       -0.0133
     12 C          62.9423   84.7736   13.9412 C.ar    1  UNL1        0.0259
     13 C          62.4883   83.7301   14.9185 C.ar    1  UNL1        0.1421
     14 F          62.3203   84.0817   16.3670 F       1  UNL1       -0.2041
     15 C          62.2022   82.3351   14.4473 C.ar    1  UNL1        0.0592
     16 C          62.3702   81.9835   12.9988 C.ar    1  UNL1        0.1421
     17 F          62.0842   80.5884   12.5276 F       1  UNL1       -0.2041
     18 C          62.8243   83.0269   12.0215 C.ar    1  UNL1        0.0259
     19 C          62.3106   90.4359   12.3652 C.3     1  UNL1        0.1380
     20 C          63.6564   91.0935   12.2872 C.ar    1  UNL1        0.0280
     21 C          64.1011   91.7426   11.0101 C.ar    1  UNL1       -0.0002
     22 C          65.4470   92.4003   10.9320 C.ar    1  UNL1       -0.0001
     23 C          66.3482   92.4090   12.1311 C.ar    1  UNL1        0.0023
     24 C          65.9034   91.7598   13.4082 C.ar    1  UNL1        0.0294
     25 C          64.5576   91.1022   13.4862 C.ar    1  UNL1        0.1380
     26 F          64.1130   90.4531   14.7633 F       1  UNL1       -0.2044
     27 C          59.0894   88.8494    8.2479 C.2     1  UNL1        0.0835
     28 C          58.9499   88.8637    6.7544 C.2     1  UNL1        0.1910
     29 O          59.3192   87.6494    5.9550 O.2     1  UNL1       -0.5018
     30 H          59.6371   86.8820    6.3885 H       1  UNL1        0.2924
     31 C          58.4410   90.0923    6.0604 C.2     1  UNL1        0.2831
     32 O          57.0295   90.5487    6.2823 O.2     1  UNL1       -0.2666
     33 N          59.3438   90.8645    5.1445 N.am    1  UNL1       -0.2701
     34 C          58.8349   92.0931    4.4505 C.3     1  UNL1        0.1152
     35 C          59.7376   92.8653    3.5347 C.3     1  UNL1        0.1123
     36 N          61.1492   92.4089    3.3128 N.pl3   1  UNL1       -0.3041
     37 C          61.6580   91.1803    4.0068 C.3     1  UNL1        0.1123
     38 C          60.7553   90.4081    4.9226 C.3     1  UNL1        0.1152
     39 C          62.0519   93.1811    2.3969 C.ar    1  UNL1        0.0480
     40 C          61.5000   94.3072    1.5740 C.ar    1  UNL1        0.0160
     41 C          62.4027   95.0794    0.6581 C.ar    1  UNL1        0.0188
     42 C          63.8574   94.7255    0.5651 C.ar    1  UNL1        0.0642
     43 C          64.4093   93.5993    1.3881 C.ar    1  UNL1        0.0188
     44 C          63.5066   92.8272    2.3039 C.ar    1  UNL1        0.0160
     45 N          64.7601   95.4977   -0.3507 N.ar    1  UNL1       -0.3036
     46 C          66.0144   96.2172    0.0482 C.ar    1  UNL1        0.0802
     47 C          66.5965   96.8501   -1.1808 C.ar    1  UNL1        0.0205
     48 C          65.7020   96.5217   -2.3393 C.ar    1  UNL1        0.0205
     49 C          64.5670   95.6859   -1.8263 C.ar    1  UNL1        0.0802
@<TRIPOS>BOND
     1     1     2    2
     2     2    27    1
     3    27    28    2
     4    28    29    1
     5    28    31    1
     6    31    32    2
     7    31    33   am
     8    33    34    1
     9    34    35    1
    10    35    36    1
    11    36    39    1
    12    39    40   ar
    13    40    41   ar
    14    41    42   ar
    15    42    45    1
    16    45    46   ar
    17    46    47   ar
    18    47    48   ar
    19    48    49   ar
    20    42    43   ar
    21    43    44   ar
    22    36    37    1
    23    37    38    1
    24     2     3    1
    25     3     4   ar
    26     4     5   ar
    27     5    10    1
    28    10    11    1
    29    11    12   ar
    30    12    13   ar
    31    13    14    1
    32    13    15   ar
    33    15    16   ar
    34    16    17    1
    35    16    18   ar
    36     5     6   ar
    37     6     7   ar
    38     7    19    1
    39    19    20    1
    40    20    21   ar
    41    21    22   ar
    42    22    23   ar
    43    23    24   ar
    44    24    25   ar
    45    25    26    1
    46     7     8   ar
    47     8     9    2
    48    38    33    1
    49     8     3   ar
    50    44    39   ar
    51    18    11   ar
    52    25    20   ar
    53    49    45   ar
    54    29    30    1
@<TRIPOS>MOLECULE
*****
 49 54 0 0 0
SMALL
GASTEIGER

@<TRIPOS>ATOM
      1 O          59.1070   87.7746    6.5963 O.2     1  UNL1       -0.2863
      2 C          59.6031   89.0414    7.2280 C.2     1  UNL1        0.2034
      3 C          60.4405   88.9817    8.4710 C.ar    1  UNL1        0.0949
      4 C          61.2850   90.1577    8.8637 C.ar    1  UNL1        0.0055
      5 C          62.1224   90.0980   10.1067 C.ar    1  UNL1       -0.0002
      6 C          62.1155   88.8624   10.9571 C.ar    1  UNL1        0.0746
      7 N          61.2711   87.6864   10.5645 N.ar    1  UNL1       -0.2901
      8 C          60.4336   87.7461    9.3214 C.ar    1  UNL1        0.2642
      9 O          59.5892   86.5702    8.9289 O.2     1  UNL1       -0.2669
     10 C          62.9668   91.2739   10.4992 C.3     1  UNL1        0.0543
     11 C          63.7661   91.2331   11.7679 C.ar    1  UNL1       -0.0133
     12 C          64.9842   92.0959   11.9149 C.ar    1  UNL1        0.0259
     13 C          65.7835   92.0552   13.1836 C.ar    1  UNL1        0.1421
     14 F          67.0016   92.9180   13.3306 F       1  UNL1       -0.2041
     15 C          65.3646   91.1516   14.3052 C.ar    1  UNL1        0.0592
     16 C          64.1465   90.2887   14.1582 C.ar    1  UNL1        0.1421
     17 F          63.7276   89.3851   15.2798 F       1  UNL1       -0.2041
     18 C          63.3472   90.3295   12.8895 C.ar    1  UNL1        0.0259
     19 C          61.2642   86.4508   11.4149 C.3     1  UNL1        0.1380
     20 C          62.2397   85.3453   11.1394 C.ar    1  UNL1        0.0280
     21 C          62.7157   85.0968    9.7388 C.ar    1  UNL1       -0.0002
     22 C          63.6913   83.9912    9.4632 C.ar    1  UNL1       -0.0001
     23 C          64.1909   83.1341   10.5883 C.ar    1  UNL1        0.0023
     24 C          63.7149   83.3826   11.9889 C.ar    1  UNL1        0.0294
     25 C          62.7393   84.4881   12.2645 C.ar    1  UNL1        0.1380
     26 F          62.2634   84.7366   13.6650 F       1  UNL1       -0.2044
     27 C          59.2617   90.3679    6.6168 C.2     1  UNL1        0.0835
     28 C          59.9196   90.7963    5.3386 C.2     1  UNL1        0.1910
     29 O          60.9189   89.8982    4.6717 O.2     1  UNL1       -0.5018
     30 H          61.1321   89.0695    5.0536 H       1  UNL1        0.2924
     31 C          59.5782   92.1229    4.7273 C.2     1  UNL1        0.2831
     32 O          58.4754   92.9558    5.3104 O.2     1  UNL1       -0.2666
     33 N          60.3397   92.6165    3.5329 N.am    1  UNL1       -0.2701
     34 C          59.9983   93.9431    2.9216 C.3     1  UNL1        0.1152
     35 C          60.7597   94.4366    1.7272 C.3     1  UNL1        0.1123
     36 N          61.8625   93.6037    1.1441 N.pl3   1  UNL1       -0.3041
     37 C          62.2039   92.2772    1.7554 C.3     1  UNL1        0.1123
     38 C          61.4425   91.7836    2.9498 C.3     1  UNL1        0.1152
     39 C          62.6240   94.0973   -0.0503 C.ar    1  UNL1        0.0480
     40 C          63.8915   94.8771    0.1381 C.ar    1  UNL1        0.0160
     41 C          64.6529   95.3707   -1.0563 C.ar    1  UNL1        0.0188
     42 C          64.1468   95.0846   -2.4391 C.ar    1  UNL1        0.0642
     43 C          62.8793   94.3048   -2.6274 C.ar    1  UNL1        0.0188
     44 C          62.1179   93.8112   -1.4330 C.ar    1  UNL1        0.0160
     45 N          64.9082   95.5782   -3.6335 N.ar    1  UNL1       -0.3036
     46 C          65.9243   96.6816   -3.6370 C.ar    1  UNL1        0.0802
     47 C          66.4313   96.8405   -5.0398 C.ar    1  UNL1        0.0205
     48 C          65.7285   95.8351   -5.9032 C.ar    1  UNL1        0.0205
     49 C          64.7872   95.0550   -5.0341 C.ar    1  UNL1        0.0802
@<TRIPOS>BOND
     1     1     2    2
     2     2    27    1
     3    27    28    2
     4    28    29    1
     5    28    31    1
     6    31    32    2
     7    31    33   am
     8    33    34    1
     9    34    35    1
    10    35    36    1
    11    36    39    1
    12    39    40   ar
    13    40    41   ar
    14    41    42   ar
    15    42    45    1
    16    45    46   ar
    17    46    47   ar
    18    47    48   ar
    19    48    49   ar
    20    42    43   ar
    21    43    44   ar
    22    36    37    1
    23    37    38    1
    24     2     3    1
    25     3     4   ar
    26     4     5   ar
    27     5    10    1
    28    10    11    1
    29    11    12   ar
    30    12    13   ar
    31    13    14    1
    32    13    15   ar
    33    15    16   ar
    34    16    17    1
    35    16    18   ar
    36     5     6   ar
    37     6     7   ar
    38     7    19    1
    39    19    20    1
    40    20    21   ar
    41    21    22   ar
    42    22    23   ar
    43    23    24   ar
    44    24    25   ar
    45    25    26    1
    46     7     8   ar
    47     8     9    2
    48    38    33    1
    49     8     3   ar
    50    44    39   ar
    51    18    11   ar
    52    25    20   ar
    53    49    45   ar
    54    29    30    1
@<TRIPOS>MOLECULE
*****
 49 54 0 0 0
SMALL
GASTEIGER

@<TRIPOS>ATOM
      1 O          57.3953   91.5460    5.0586 O.2     1  UNL1       -0.2863
      2 C          58.8555   91.2883    4.8318 C.2     1  UNL1        0.2034
      3 C          59.5862   92.0199    3.7451 C.ar    1  UNL1        0.0949
      4 C          58.8178   92.7766    2.7025 C.ar    1  UNL1        0.0055
      5 C          59.5485   93.5082    1.6158 C.ar    1  UNL1       -0.0002
      6 C          61.0476   93.4831    1.5717 C.ar    1  UNL1        0.0746
      7 N          61.8160   92.7264    2.6143 N.ar    1  UNL1       -0.2901
      8 C          61.0853   91.9948    3.7010 C.ar    1  UNL1        0.2642
      9 O          61.8538   91.2382    4.7436 O.2     1  UNL1       -0.2669
     10 C          58.7800   94.2648    0.5733 C.3     1  UNL1        0.0543
     11 C          58.4728   93.6213   -0.7464 C.ar    1  UNL1       -0.0133
     12 C          57.2990   92.6962   -0.8744 C.ar    1  UNL1        0.0259
     13 C          56.9917   92.0527   -2.1941 C.ar    1  UNL1        0.1421
     14 F          55.8180   91.1276   -2.3222 F       1  UNL1       -0.2041
     15 C          57.8582   92.3343   -3.3857 C.ar    1  UNL1        0.0592
     16 C          59.0321   93.2594   -3.2576 C.ar    1  UNL1        0.1421
     17 F          59.8986   93.5410   -4.4492 F       1  UNL1       -0.2041
     18 C          59.3393   93.9029   -1.9379 C.ar    1  UNL1        0.0259
     19 C          63.3152   92.7013    2.5702 C.3     1  UNL1        0.1380
     20 C          64.0665   93.8425    1.9512 C.ar    1  UNL1        0.0280
     21 C          64.6175   94.9357    2.8180 C.ar    1  UNL1       -0.0002
     22 C          65.3689   96.0769    2.1990 C.ar    1  UNL1       -0.0001
     23 C          65.5692   96.1249    0.7132 C.ar    1  UNL1        0.0023
     24 C          65.0182   95.0317   -0.1536 C.ar    1  UNL1        0.0294
     25 C          64.2668   93.8905    0.4654 C.ar    1  UNL1        0.1380
     26 F          63.7159   92.7974   -0.4014 F       1  UNL1       -0.2044
     27 C          59.5850   90.2991    5.6915 C.2     1  UNL1        0.0835
     28 C          58.8167   89.3802    6.5946 C.2     1  UNL1        0.1910
     29 O          57.3190   89.4505    6.6377 O.2     1  UNL1       -0.5018
     30 H          56.8633   90.0684    6.1006 H       1  UNL1        0.2924
     31 C          59.5462   88.3910    7.4543 C.2     1  UNL1        0.2831
     32 O          59.3106   86.9209    7.2714 O.2     1  UNL1       -0.2666
     33 N          60.5114   88.8718    8.4971 N.am    1  UNL1       -0.2701
     34 C          61.2409   87.8826    9.3569 C.3     1  UNL1        0.1152
     35 C          62.2060   88.3634   10.3996 C.3     1  UNL1        0.1123
     36 N          62.4416   89.8335   10.5826 N.pl3   1  UNL1       -0.3041
     37 C          61.7122   90.8227    9.7228 C.3     1  UNL1        0.1123
     38 C          60.7470   90.3418    8.6801 C.3     1  UNL1        0.1152
     39 C          63.4068   90.3143   11.6253 C.ar    1  UNL1        0.0480
     40 C          63.5446   89.5695   12.9201 C.ar    1  UNL1        0.0160
     41 C          64.5098   90.0504   13.9628 C.ar    1  UNL1        0.0188
     42 C          65.3371   91.2759   13.7108 C.ar    1  UNL1        0.0642
     43 C          65.1993   92.0207   12.4160 C.ar    1  UNL1        0.0188
     44 C          64.2342   91.5398   11.3733 C.ar    1  UNL1        0.0160
     45 N          66.3023   91.7567   14.7535 N.ar    1  UNL1       -0.3036
     46 C          67.7944   91.6102   14.7083 C.ar    1  UNL1        0.0802
     47 C          68.3591   92.2315   15.9513 C.ar    1  UNL1        0.0205
     48 C          67.2159   92.7619   16.7648 C.ar    1  UNL1        0.0205
     49 C          65.9447   92.4685   16.0245 C.ar    1  UNL1        0.0802
@<TRIPOS>BOND
     1     1     2    2
     2     2    27    1
     3    27    28    2
     4    28    29    1
     5    28    31    1
     6    31    32    2
     7    31    33   am
     8    33    34    1
     9    34    35    1
    10    35    36    1
    11    36    39    1
    12    39    40   ar
    13    40    41   ar
    14    41    42   ar
    15    42    45    1
    16    45    46   ar
    17    46    47   ar
    18    47    48   ar
    19    48    49   ar
    20    42    43   ar
    21    43    44   ar
    22    36    37    1
    23    37    38    1
    24     2     3    1
    25     3     4   ar
    26     4     5   ar
    27     5    10    1
    28    10    11    1
    29    11    12   ar
    30    12    13   ar
    31    13    14    1
    32    13    15   ar
    33    15    16   ar
    34    16    17    1
    35    16    18   ar
    36     5     6   ar
    37     6     7   ar
    38     7    19    1
    39    19    20    1
    40    20    21   ar
    41    21    22   ar
    42    22    23   ar
    43    23    24   ar
    44    24    25   ar
    45    25    26    1
    46     7     8   ar
    47     8     9    2
    48    38    33    1
    49     8     3   ar
    50    44    39   ar
    51    18    11   ar
    52    25    20   ar
    53    49    45   ar
    54    29    30    1
@<TRIPOS>MOLECULE
*****
 49 54 0 0 0
SMALL
GASTEIGER

@<TRIPOS>ATOM
      1 O          58.1958   89.6827    6.5063 O.2     1  UNL1       -0.2863
      2 C          59.6725   89.5316    6.7226 C.2     1  UNL1        0.2034
      3 C          60.1886   88.9923    8.0236 C.ar    1  UNL1        0.0949
      4 C          60.4536   89.9236    9.1693 C.ar    1  UNL1        0.0055
      5 C          60.9698   89.3843   10.4703 C.ar    1  UNL1       -0.0002
      6 C          61.2208   87.9137   10.6258 C.ar    1  UNL1        0.0746
      7 N          60.9558   86.9823    9.4802 N.ar    1  UNL1       -0.2901
      8 C          60.4396   87.5216    8.1791 C.ar    1  UNL1        0.2642
      9 O          60.1746   86.5903    7.0336 O.2     1  UNL1       -0.2669
     10 C          61.2348   90.3156   11.6159 C.3     1  UNL1        0.0543
     11 C          62.6335   90.7783   11.8981 C.ar    1  UNL1       -0.0133
     12 C          63.3980   91.5360   10.8534 C.ar    1  UNL1        0.0259
     13 C          64.7966   91.9987   11.1357 C.ar    1  UNL1        0.1421
     14 F          65.5612   92.7564   10.0910 F       1  UNL1       -0.2041
     15 C          65.4308   91.7038   12.4627 C.ar    1  UNL1        0.0592
     16 C          64.6662   90.9461   13.5074 C.ar    1  UNL1        0.1421
     17 F          65.3004   90.6511   14.8344 F       1  UNL1       -0.2041
     18 C          63.2676   90.4834   13.2252 C.ar    1  UNL1        0.0259
     19 C          61.2068   85.5117    9.6357 C.3     1  UNL1        0.1380
     20 C          62.1880   85.0224   10.6593 C.ar    1  UNL1        0.0280
     21 C          62.0331   85.4207   12.0971 C.ar    1  UNL1       -0.0002
     22 C          63.0143   84.9314   13.1209 C.ar    1  UNL1       -0.0001
     23 C          64.1504   84.0439   12.7067 C.ar    1  UNL1        0.0023
     24 C          64.3053   83.6457   11.2687 C.ar    1  UNL1        0.0294
     25 C          63.3241   84.1349   10.2451 C.ar    1  UNL1        0.1380
     26 F          63.4791   83.7367    8.8073 F       1  UNL1       -0.2044
     27 C          60.6330   89.9199    5.6379 C.2     1  UNL1        0.0835
     28 C          60.4561   91.2190    4.9092 C.2     1  UNL1        0.1910
     29 O          59.3188   92.1299    5.2652 O.2     1  UNL1       -0.5018
     30 H          58.7188   91.8873    5.9428 H       1  UNL1        0.2924
     31 C          61.4166   91.6073    3.8245 C.2     1  UNL1        0.2831
     32 O          62.8880   91.3820    4.0096 O.2     1  UNL1       -0.2666
     33 N          60.9058   92.2209    2.5546 N.am    1  UNL1       -0.2701
     34 C          61.8663   92.6091    1.4698 C.3     1  UNL1        0.1152
     35 C          61.3554   93.2227    0.2000 C.3     1  UNL1        0.1123
     36 N          59.8840   93.4479    0.0149 N.pl3   1  UNL1       -0.3041
     37 C          58.9235   93.0597    1.0996 C.3     1  UNL1        0.1123
     38 C          59.4344   92.4461    2.3694 C.3     1  UNL1        0.1152
     39 C          59.3731   94.0615   -1.2550 C.ar    1  UNL1        0.0480
     40 C          59.1847   95.5467   -1.3475 C.ar    1  UNL1        0.0160
     41 C          58.6738   96.1603   -2.6174 C.ar    1  UNL1        0.0188
     42 C          58.3514   95.2886   -3.7948 C.ar    1  UNL1        0.0642
     43 C          58.5399   93.8033   -3.7023 C.ar    1  UNL1        0.0188
     44 C          59.0508   93.1898   -2.4324 C.ar    1  UNL1        0.0160
     45 N          57.8406   95.9021   -5.0647 N.ar    1  UNL1       -0.3036
     46 C          56.4124   96.2498   -5.3637 C.ar    1  UNL1        0.0802
     47 C          56.3574   96.8382   -6.7423 C.ar    1  UNL1        0.0205
     48 C          57.7516   96.8542   -7.2954 C.ar    1  UNL1        0.0205
     49 C          58.6683   96.2756   -6.2586 C.ar    1  UNL1        0.0802
@<TRIPOS>BOND
     1     1     2    2
     2     2    27    1
     3    27    28    2
     4    28    29    1
     5    28    31    1
     6    31    32    2
     7    31    33   am
     8    33    34    1
     9    34    35    1
    10    35    36    1
    11    36    39    1
    12    39    40   ar
    13    40    41   ar
    14    41    42   ar
    15    42    45    1
    16    45    46   ar
    17    46    47   ar
    18    47    48   ar
    19    48    49   ar
    20    42    43   ar
    21    43    44   ar
    22    36    37    1
    23    37    38    1
    24     2     3    1
    25     3     4   ar
    26     4     5   ar
    27     5    10    1
    28    10    11    1
    29    11    12   ar
    30    12    13   ar
    31    13    14    1
    32    13    15   ar
    33    15    16   ar
    34    16    17    1
    35    16    18   ar
    36     5     6   ar
    37     6     7   ar
    38     7    19    1
    39    19    20    1
    40    20    21   ar
    41    21    22   ar
    42    22    23   ar
    43    23    24   ar
    44    24    25   ar
    45    25    26    1
    46     7     8   ar
    47     8     9    2
    48    38    33    1
    49     8     3   ar
    50    44    39   ar
    51    18    11   ar
    52    25    20   ar
    53    49    45   ar
    54    29    30    1
@<TRIPOS>MOLECULE
*****
 49 54 0 0 0
SMALL
GASTEIGER

@<TRIPOS>ATOM
      1 O          59.0640   86.1536    7.0972 O.2     1  UNL1       -0.2863
      2 C          59.4994   87.4293    7.7553 C.2     1  UNL1        0.2034
      3 C          60.4280   87.3870    8.9325 C.ar    1  UNL1        0.0949
      4 C          61.2580   86.1642    9.1895 C.ar    1  UNL1        0.0055
      5 C          62.1866   86.1219   10.3667 C.ar    1  UNL1       -0.0002
      6 C          62.2852   87.3023   11.2870 C.ar    1  UNL1        0.0746
      7 N          61.4552   88.5250   11.0300 N.ar    1  UNL1       -0.2901
      8 C          60.5266   88.5674    9.8528 C.ar    1  UNL1        0.2642
      9 O          59.6966   89.7901    9.5959 O.2     1  UNL1       -0.2669
     10 C          63.0166   84.8992   10.6236 C.3     1  UNL1        0.0543
     11 C          62.8060   84.0990   11.8748 C.ar    1  UNL1       -0.0133
     12 C          62.9356   82.6051   11.8403 C.ar    1  UNL1        0.0259
     13 C          62.7250   81.8049   13.0914 C.ar    1  UNL1        0.1421
     14 F          62.8546   80.3110   13.0570 F       1  UNL1       -0.2041
     15 C          62.3847   82.4987   14.3770 C.ar    1  UNL1        0.0592
     16 C          62.2551   83.9928   14.4116 C.ar    1  UNL1        0.1421
     17 F          61.9149   84.6865   15.6972 F       1  UNL1       -0.2041
     18 C          62.4658   84.7929   13.1604 C.ar    1  UNL1        0.0259
     19 C          61.5538   89.7054   11.9503 C.3     1  UNL1        0.1380
     20 C          62.8497   90.4497   12.0793 C.ar    1  UNL1        0.0280
     21 C          63.5990   90.4313   13.3786 C.ar    1  UNL1       -0.0002
     22 C          64.8950   91.1755   13.5076 C.ar    1  UNL1       -0.0001
     23 C          65.4416   91.9382   12.3373 C.ar    1  UNL1        0.0023
     24 C          64.6922   91.9566   11.0380 C.ar    1  UNL1        0.0294
     25 C          63.3963   91.2124   10.9090 C.ar    1  UNL1        0.1380
     26 F          62.6470   91.2308    9.6098 F       1  UNL1       -0.2044
     27 C          59.0061   88.7473    7.2362 C.2     1  UNL1        0.0835
     28 C          59.6964   89.4026    6.0768 C.2     1  UNL1        0.1910
     29 O          60.8800   88.7398    5.4366 O.2     1  UNL1       -0.5018
     30 H          61.1881   87.9165    5.7608 H       1  UNL1        0.2924
     31 C          59.2032   90.7206    5.5577 C.2     1  UNL1        0.2831
     32 O          57.9553   91.3303    6.1242 O.2     1  UNL1       -0.2666
     33 N          59.9578   91.4289    4.4719 N.am    1  UNL1       -0.2701
     34 C          59.4645   92.7469    3.9528 C.3     1  UNL1        0.1152
     35 C          60.2192   93.4552    2.8671 C.3     1  UNL1        0.1123
     36 N          61.4671   92.8455    2.3005 N.pl3   1  UNL1       -0.3041
     37 C          61.9603   91.5275    2.8196 C.3     1  UNL1        0.1123
     38 C          61.2057   90.8192    3.9053 C.3     1  UNL1        0.1152
     39 C          62.2217   93.5539    1.2147 C.ar    1  UNL1        0.0480
     40 C          61.5193   93.9535   -0.0489 C.ar    1  UNL1        0.0160
     41 C          62.2739   94.6619   -1.1347 C.ar    1  UNL1        0.0188
     42 C          63.7310   94.9706   -0.9567 C.ar    1  UNL1        0.0642
     43 C          64.4334   94.5709    0.3070 C.ar    1  UNL1        0.0188
     44 C          63.6788   93.8626    1.3927 C.ar    1  UNL1        0.0160
     45 N          64.4856   95.6789   -2.0424 N.ar    1  UNL1       -0.3036
     46 C          63.9842   95.9553   -3.4288 C.ar    1  UNL1        0.0802
     47 C          65.0629   96.6824   -4.1756 C.ar    1  UNL1        0.0205
     48 C          66.2310   96.8555   -3.2506 C.ar    1  UNL1        0.0205
     49 C          65.8743   96.2353   -1.9323 C.ar    1  UNL1        0.0802
@<TRIPOS>BOND
     1     1     2    2
     2     2    27    1
     3    27    28    2
     4    28    29    1
     5    28    31    1
     6    31    32    2
     7    31    33   am
     8    33    34    1
     9    34    35    1
    10    35    36    1
    11    36    39    1
    12    39    40   ar
    13    40    41   ar
    14    41    42   ar
    15    42    45    1
    16    45    46   ar
    17    46    47   ar
    18    47    48   ar
    19    48    49   ar
    20    42    43   ar
    21    43    44   ar
    22    36    37    1
    23    37    38    1
    24     2     3    1
    25     3     4   ar
    26     4     5   ar
    27     5    10    1
    28    10    11    1
    29    11    12   ar
    30    12    13   ar
    31    13    14    1
    32    13    15   ar
    33    15    16   ar
    34    16    17    1
    35    16    18   ar
    36     5     6   ar
    37     6     7   ar
    38     7    19    1
    39    19    20    1
    40    20    21   ar
    41    21    22   ar
    42    22    23   ar
    43    23    24   ar
    44    24    25   ar
    45    25    26    1
    46     7     8   ar
    47     8     9    2
    48    38    33    1
    49     8     3   ar
    50    44    39   ar
    51    18    11   ar
    52    25    20   ar
    53    49    45   ar
    54    29    30    1
@<TRIPOS>MOLECULE
*****
 49 54 0 0 0
SMALL
GASTEIGER

@<TRIPOS>ATOM
      1 O          60.4926   94.3653    3.2076 O.2     1  UNL1       -0.2863
      2 C          59.8207   93.3279    2.3577 C.2     1  UNL1        0.2034
      3 C          59.9016   93.4160    0.8625 C.ar    1  UNL1        0.0949
      4 C          58.6872   93.7925    0.0665 C.ar    1  UNL1        0.0055
      5 C          58.7681   93.8806   -1.4287 C.ar    1  UNL1       -0.0002
      6 C          60.0634   93.5922   -2.1280 C.ar    1  UNL1        0.0746
      7 N          61.2778   93.2156   -1.3321 N.ar    1  UNL1       -0.2901
      8 C          61.1969   93.1275    0.1632 C.ar    1  UNL1        0.2642
      9 O          62.4113   92.7510    0.9590 O.2     1  UNL1       -0.2669
     10 C          57.5537   94.2572   -2.2245 C.3     1  UNL1        0.0543
     11 C          56.9358   93.2650   -3.1647 C.ar    1  UNL1       -0.0133
     12 C          56.7810   93.6043   -4.6176 C.ar    1  UNL1        0.0259
     13 C          56.1631   92.6121   -5.5577 C.ar    1  UNL1        0.1421
     14 F          56.0083   92.9514   -7.0106 F       1  UNL1       -0.2041
     15 C          55.7001   91.2808   -5.0450 C.ar    1  UNL1        0.0592
     16 C          55.8549   90.9414   -3.5920 C.ar    1  UNL1        0.1421
     17 F          55.3918   89.6101   -3.0793 F       1  UNL1       -0.2041
     18 C          56.4728   91.9336   -2.6519 C.ar    1  UNL1        0.0259
     19 C          62.5730   92.9272   -2.0314 C.3     1  UNL1        0.1380
     20 C          63.5030   94.0509   -2.3812 C.ar    1  UNL1        0.0280
     21 C          64.1454   94.8590   -1.2929 C.ar    1  UNL1       -0.0002
     22 C          65.0755   95.9828   -1.6426 C.ar    1  UNL1       -0.0001
     23 C          65.3630   96.2984   -3.0806 C.ar    1  UNL1        0.0023
     24 C          64.7205   95.4903   -4.1688 C.ar    1  UNL1        0.0294
     25 C          63.7906   94.3665   -3.8191 C.ar    1  UNL1        0.1380
     26 F          63.1481   93.5585   -4.9073 F       1  UNL1       -0.2044
     27 C          59.0679   92.2024    3.0030 C.2     1  UNL1        0.0835
     28 C          58.6828   92.2901    4.4501 C.2     1  UNL1        0.1910
     29 O          59.0504   93.5034    5.2518 O.2     1  UNL1       -0.5018
     30 H          59.5207   94.2065    4.8487 H       1  UNL1        0.2924
     31 C          57.9300   91.1646    5.0954 C.2     1  UNL1        0.2831
     32 O          56.4650   90.9898    4.8249 O.2     1  UNL1       -0.2666
     33 N          58.6422   90.2138    6.0113 N.am    1  UNL1       -0.2701
     34 C          57.8895   89.0882    6.6566 C.3     1  UNL1        0.1152
     35 C          58.6017   88.1375    7.5724 C.3     1  UNL1        0.1123
     36 N          60.0667   88.3123    7.8430 N.pl3   1  UNL1       -0.3041
     37 C          60.8195   89.4379    7.1977 C.3     1  UNL1        0.1123
     38 C          60.1073   90.3886    6.2818 C.3     1  UNL1        0.1152
     39 C          60.7790   87.3615    8.7589 C.ar    1  UNL1        0.0480
     40 C          60.5462   87.4298   10.2391 C.ar    1  UNL1        0.0160
     41 C          61.2585   86.4790   11.1550 C.ar    1  UNL1        0.0188
     42 C          62.2034   85.4600   10.5906 C.ar    1  UNL1        0.0642
     43 C          62.4361   85.3917    9.1102 C.ar    1  UNL1        0.0188
     44 C          61.7239   86.3425    8.1944 C.ar    1  UNL1        0.0160
     45 N          62.9156   84.5092   11.5064 N.ar    1  UNL1       -0.3036
     46 C          62.8725   84.5300   13.0056 C.ar    1  UNL1        0.0802
     47 C          63.7262   83.4044   13.5096 C.ar    1  UNL1        0.0205
     48 C          64.2971   82.6879   12.3217 C.ar    1  UNL1        0.0205
     49 C          63.7961   83.3708   11.0837 C.ar    1  UNL1        0.0802
@<TRIPOS>BOND
     1     1     2    2
     2     2    27    1
     3    27    28    2
     4    28    29    1
     5    28    31    1
     6    31    32    2
     7    31    33   am
     8    33    34    1
     9    34    35    1
    10    35    36    1
    11    36    39    1
    12    39    40   ar
    13    40    41   ar
    14    41    42   ar
    15    42    45    1
    16    45    46   ar
    17    46    47   ar
    18    47    48   ar
    19    48    49   ar
    20    42    43   ar
    21    43    44   ar
    22    36    37    1
    23    37    38    1
    24     2     3    1
    25     3     4   ar
    26     4     5   ar
    27     5    10    1
    28    10    11    1
    29    11    12   ar
    30    12    13   ar
    31    13    14    1
    32    13    15   ar
    33    15    16   ar
    34    16    17    1
    35    16    18   ar
    36     5     6   ar
    37     6     7   ar
    38     7    19    1
    39    19    20    1
    40    20    21   ar
    41    21    22   ar
    42    22    23   ar
    43    23    24   ar
    44    24    25   ar
    45    25    26    1
    46     7     8   ar
    47     8     9    2
    48    38    33    1
    49     8     3   ar
    50    44    39   ar
    51    18    11   ar
    52    25    20   ar
    53    49    45   ar
    54    29    30    1
