@<TRIPOS>MOLECULE
*****
 32 35 0 0 0
SMALL
GASTEIGER

@<TRIPOS>ATOM
      1 C          65.3888   91.7624   13.7317 C.ar    1  UNL1       -0.0044
      2 C          64.5470   91.3917   12.5468 C.ar    1  UNL1       -0.0014
      3 C          63.9582   90.0158   12.4461 C.ar    1  UNL1        0.0144
      4 C          64.2112   89.0105   13.5302 C.ar    1  UNL1        0.0516
      5 C          65.0531   89.3811   14.7151 C.ar    1  UNL1        0.0144
      6 C          65.6419   90.7571   14.8158 C.ar    1  UNL1       -0.0014
      7 N          63.6224   87.6346   13.4295 N.am    1  UNL1       -0.2681
      8 C          64.2427   86.4963   14.1841 C.2     1  UNL1        0.3077
      9 O          65.4518   86.7339   15.0394 O.2     1  UNL1       -0.2522
     10 N          63.6539   85.1204   14.0834 N.am    1  UNL1       -0.2632
     11 C          63.9844   83.7797   14.6695 C.3     1  UNL1        0.1010
     12 C          62.8212   83.1745   13.9410 C.3     1  UNL1        0.0636
     13 C          62.4906   84.5151   13.3549 C.3     1  UNL1        0.1010
     14 H          62.8288   87.4786   12.8681 H       1  UNL1        0.1564
     15 C          62.2324   81.7986   13.8403 C.ar    1  UNL1       -0.0000
     16 C          60.8277   81.5482   14.3029 C.ar    1  UNL1       -0.0010
     17 C          60.2389   80.1723   14.2021 C.ar    1  UNL1        0.0204
     18 C          61.0548   79.0468   13.6388 C.ar    1  UNL1        0.0989
     19 N          62.4595   79.2971   13.1763 N.ar    1  UNL1       -0.2426
     20 C          63.0483   80.6730   13.2770 C.ar    1  UNL1        0.0947
     21 C          66.6939   93.5579   15.0816 C.3     1  UNL1        0.0262
     22 C          65.9776   93.1383   13.8324 C.3     1  UNL1        0.0941
     23 N          65.8501   94.0946   12.6837 N.am    1  UNL1       -0.3022
     24 C          66.7053   93.9198   11.4638 C.2     1  UNL1        0.2223
     25 O          67.6880   92.7888   11.3925 O.2     1  UNL1       -0.2751
     26 H          65.2051   94.8369   12.7305 H       1  UNL1        0.1497
     27 C          66.5777   94.8761   10.3152 C.3     1  UNL1        0.0815
     28 C          67.5466   94.8087    9.1721 C.3     1  UNL1        0.0412
     29 C          67.4191   95.7650    8.0235 C.3     1  UNL1        0.1427
     30 O          66.3226   96.7886    8.0180 O.3     1  UNL1       -0.3538
     31 C          65.3537   96.8559    9.1611 C.3     1  UNL1        0.1427
     32 C          65.4813   95.8997   10.3097 C.3     1  UNL1        0.0412
@<TRIPOS>BOND
     1    22    21    1
     2    22    23    1
     3    23    24   am
     4    24    25    2
     5    24    27    1
     6    27    28    1
     7    28    29    1
     8    29    30    1
     9    30    31    1
    10    31    32    1
    11    22     1    1
    12     1     2   ar
    13     2     3   ar
    14     3     4   ar
    15     4     7    1
    16     7     8   am
    17     8     9    2
    18     8    10   am
    19    10    11    1
    20    11    12    1
    21    12    15    1
    22    15    16   ar
    23    16    17   ar
    24    17    18   ar
    25    18    19   ar
    26    19    20   ar
    27    12    13    1
    28     4     5   ar
    29     5     6   ar
    30    32    27    1
    31     6     1   ar
    32    13    10    1
    33    20    15   ar
    34    23    26    1
    35     7    14    1
@<TRIPOS>MOLECULE
*****
 32 35 0 0 0
SMALL
GASTEIGER

@<TRIPOS>ATOM
      1 C          59.0876   95.0802   -0.1511 C.ar    1  UNL1       -0.0044
      2 C          59.8019   95.6138    1.0552 C.ar    1  UNL1       -0.0014
      3 C          60.1200   94.7018    2.2028 C.ar    1  UNL1        0.0144
      4 C          59.7240   93.2562    2.1441 C.ar    1  UNL1        0.0516
      5 C          59.0097   92.7226    0.9378 C.ar    1  UNL1        0.0144
      6 C          58.6915   93.6346   -0.2098 C.ar    1  UNL1       -0.0014
      7 N          60.0421   92.3442    3.2918 N.am    1  UNL1       -0.2681
      8 C          58.9379   91.8175    4.1596 C.2     1  UNL1        0.3077
      9 O          57.5155   92.2027    3.8798 O.2     1  UNL1       -0.2522
     10 N          59.2561   90.9055    5.3072 N.am    1  UNL1       -0.2632
     11 C          58.4495   90.2028    6.3588 C.3     1  UNL1        0.1010
     12 C          59.7061   89.6158    6.9302 C.3     1  UNL1        0.0636
     13 C          60.5126   90.3184    5.8787 C.3     1  UNL1        0.1010
     14 H          60.9757   92.0914    3.4754 H       1  UNL1        0.1564
     15 C          60.0242   88.7038    8.0778 C.ar    1  UNL1       -0.0000
     16 C          60.1131   87.2229    7.8566 C.ar    1  UNL1       -0.0010
     17 C          60.4313   86.3109    9.0042 C.ar    1  UNL1        0.0204
     18 C          60.6606   86.8798   10.3730 C.ar    1  UNL1        0.0989
     19 N          60.5717   88.3607   10.5942 N.ar    1  UNL1       -0.2426
     20 C          60.2536   89.2727    9.4466 C.ar    1  UNL1        0.0947
     21 C          59.8794   96.6456   -2.0675 C.3     1  UNL1        0.0262
     22 C          58.7694   95.9922   -1.2987 C.3     1  UNL1        0.0941
     23 N          57.3412   96.2508   -1.6776 N.am    1  UNL1       -0.3022
     24 C          56.6638   95.3762   -2.6906 C.2     1  UNL1        0.2223
     25 O          57.4146   94.2430   -3.3248 O.2     1  UNL1       -0.2751
     26 H          56.8484   96.9945   -1.2613 H       1  UNL1        0.1497
     27 C          55.2356   95.6348   -3.0694 C.3     1  UNL1        0.0815
     28 C          54.1715   95.6565   -2.0125 C.3     1  UNL1        0.0412
     29 C          52.7434   95.9150   -2.3913 C.3     1  UNL1        0.1427
     30 O          52.3794   96.1520   -3.8271 O.3     1  UNL1       -0.3538
     31 C          53.4435   96.1303   -4.8840 C.3     1  UNL1        0.1427
     32 C          54.8717   95.8717   -4.5051 C.3     1  UNL1        0.0412
@<TRIPOS>BOND
     1    22    21    1
     2    22    23    1
     3    23    24   am
     4    24    25    2
     5    24    27    1
     6    27    28    1
     7    28    29    1
     8    29    30    1
     9    30    31    1
    10    31    32    1
    11    22     1    1
    12     1     2   ar
    13     2     3   ar
    14     3     4   ar
    15     4     7    1
    16     7     8   am
    17     8     9    2
    18     8    10   am
    19    10    11    1
    20    11    12    1
    21    12    15    1
    22    15    16   ar
    23    16    17   ar
    24    17    18   ar
    25    18    19   ar
    26    19    20   ar
    27    12    13    1
    28     4     5   ar
    29     5     6   ar
    30    32    27    1
    31     6     1   ar
    32    13    10    1
    33    20    15   ar
    34    23    26    1
    35     7    14    1
@<TRIPOS>MOLECULE
*****
 32 35 0 0 0
SMALL
GASTEIGER

@<TRIPOS>ATOM
      1 C          60.0571   88.2916    9.3291 C.ar    1  UNL1       -0.0044
      2 C          59.3768   87.6295    8.1678 C.ar    1  UNL1       -0.0014
      3 C          59.1278   88.4003    6.9053 C.ar    1  UNL1        0.0144
      4 C          59.5592   89.8334    6.8042 C.ar    1  UNL1        0.0516
      5 C          60.2395   90.4956    7.9656 C.ar    1  UNL1        0.0144
      6 C          60.4884   89.7248    9.2280 C.ar    1  UNL1       -0.0014
      7 N          59.3102   90.6043    5.5418 N.am    1  UNL1       -0.2681
      8 C          60.4629   91.1876    4.7795 C.2     1  UNL1        0.3077
      9 O          61.8645   90.9999    5.2797 O.2     1  UNL1       -0.2522
     10 N          60.2139   91.9585    3.5171 N.am    1  UNL1       -0.2632
     11 C          61.0807   92.6651    2.5173 C.3     1  UNL1        0.1010
     12 C          59.8618   93.0487    1.7317 C.3     1  UNL1        0.0636
     13 C          58.9950   92.3421    2.7314 C.3     1  UNL1        0.1010
     14 H          58.3902   90.7274    5.2135 H       1  UNL1        0.1564
     15 C          59.6129   93.8196    0.4693 C.ar    1  UNL1       -0.0000
     16 C          59.5524   93.1034   -0.8472 C.ar    1  UNL1       -0.0010
     17 C          59.3034   93.8742   -2.1097 C.ar    1  UNL1        0.0204
     18 C          59.1149   95.3613   -2.0556 C.ar    1  UNL1        0.0989
     19 N          59.1754   96.0775   -0.7390 N.ar    1  UNL1       -0.2426
     20 C          59.4244   95.3066    0.5234 C.ar    1  UNL1        0.0947
     21 C          59.7928   88.0409   11.9015 C.3     1  UNL1        0.0262
     22 C          60.3060   87.5207   10.5915 C.3     1  UNL1        0.0941
     23 N          61.0682   86.2296   10.5440 N.am    1  UNL1       -0.3022
     24 C          62.3167   86.0652   11.3590 C.2     1  UNL1        0.2223
     25 O          62.8030   87.1919   12.2216 O.2     1  UNL1       -0.2751
     26 H          60.7491   85.4901    9.9778 H       1  UNL1        0.1497
     27 C          63.0789   84.7741   11.3114 C.3     1  UNL1        0.0815
     28 C          63.4429   84.1664    9.9893 C.3     1  UNL1        0.0412
     29 C          64.2050   82.8753    9.9418 C.3     1  UNL1        0.1427
     30 O          64.6032   82.1921   11.2164 O.3     1  UNL1       -0.3538
     31 C          64.2392   82.7998   12.5385 C.3     1  UNL1        0.1427
     32 C          63.4770   84.0908   12.5860 C.3     1  UNL1        0.0412
@<TRIPOS>BOND
     1    22    21    1
     2    22    23    1
     3    23    24   am
     4    24    25    2
     5    24    27    1
     6    27    28    1
     7    28    29    1
     8    29    30    1
     9    30    31    1
    10    31    32    1
    11    22     1    1
    12     1     2   ar
    13     2     3   ar
    14     3     4   ar
    15     4     7    1
    16     7     8   am
    17     8     9    2
    18     8    10   am
    19    10    11    1
    20    11    12    1
    21    12    15    1
    22    15    16   ar
    23    16    17   ar
    24    17    18   ar
    25    18    19   ar
    26    19    20   ar
    27    12    13    1
    28     4     5   ar
    29     5     6   ar
    30    32    27    1
    31     6     1   ar
    32    13    10    1
    33    20    15   ar
    34    23    26    1
    35     7    14    1
@<TRIPOS>MOLECULE
*****
 32 35 0 0 0
SMALL
GASTEIGER

@<TRIPOS>ATOM
      1 C          59.9262   96.0050   -1.3897 C.ar    1  UNL1       -0.0044
      2 C          59.9224   96.0957   -2.8869 C.ar    1  UNL1       -0.0014
      3 C          58.6217   96.1125   -3.6339 C.ar    1  UNL1        0.0144
      4 C          57.3249   96.0387   -2.8837 C.ar    1  UNL1        0.0516
      5 C          57.3287   95.9480   -1.3864 C.ar    1  UNL1        0.0144
      6 C          58.6294   95.9311   -0.6394 C.ar    1  UNL1       -0.0014
      7 N          56.0243   96.0555   -3.6307 N.am    1  UNL1       -0.2681
      8 C          54.7277   96.1041   -2.8781 C.2     1  UNL1        0.3077
      9 O          54.7318   96.1359   -1.3785 O.2     1  UNL1       -0.2522
     10 N          53.4271   96.1209   -3.6251 N.am    1  UNL1       -0.2632
     11 C          51.9796   96.1656   -3.2339 C.3     1  UNL1        0.1010
     12 C          51.5877   96.1447   -4.6816 C.3     1  UNL1        0.0636
     13 C          53.0350   96.1000   -5.0729 C.3     1  UNL1        0.1010
     14 H          56.0216   96.0346   -4.6150 H       1  UNL1        0.1564
     15 C          50.2870   96.1615   -5.4286 C.ar    1  UNL1       -0.0000
     16 C          50.1861   95.5051   -6.7735 C.ar    1  UNL1       -0.0010
     17 C          48.8854   95.5220   -7.5206 C.ar    1  UNL1        0.0204
     18 C          47.6858   96.1952   -6.9227 C.ar    1  UNL1        0.0989
     19 N          47.7868   96.8516   -5.5777 N.ar    1  UNL1       -0.2426
     20 C          49.0874   96.8348   -4.8307 C.ar    1  UNL1        0.0947
     21 C          62.3940   96.7816   -1.1508 C.3     1  UNL1        0.0262
     22 C          61.2269   95.9882   -0.6426 C.3     1  UNL1        0.0941
     23 N          61.3604   95.1778    0.6126 N.am    1  UNL1       -0.3022
     24 C          61.5555   93.6930    0.5296 C.2     1  UNL1        0.2223
     25 O          61.6172   93.0183   -0.8087 O.2     1  UNL1       -0.2751
     26 H          61.3199   95.6206    1.4910 H       1  UNL1        0.1497
     27 C          61.6890   92.8826    1.7849 C.3     1  UNL1        0.0815
     28 C          60.5619   92.8402    2.7736 C.3     1  UNL1        0.0412
     29 C          60.6954   92.0299    4.0288 C.3     1  UNL1        0.1427
     30 O          61.9561   91.2621    4.2953 O.3     1  UNL1       -0.3538
     31 C          63.0833   91.3045    3.3065 C.3     1  UNL1        0.1427
     32 C          62.9497   92.1148    2.0513 C.3     1  UNL1        0.0412
@<TRIPOS>BOND
     1    22    21    1
     2    22    23    1
     3    23    24   am
     4    24    25    2
     5    24    27    1
     6    27    28    1
     7    28    29    1
     8    29    30    1
     9    30    31    1
    10    31    32    1
    11    22     1    1
    12     1     2   ar
    13     2     3   ar
    14     3     4   ar
    15     4     7    1
    16     7     8   am
    17     8     9    2
    18     8    10   am
    19    10    11    1
    20    11    12    1
    21    12    15    1
    22    15    16   ar
    23    16    17   ar
    24    17    18   ar
    25    18    19   ar
    26    19    20   ar
    27    12    13    1
    28     4     5   ar
    29     5     6   ar
    30    32    27    1
    31     6     1   ar
    32    13    10    1
    33    20    15   ar
    34    23    26    1
    35     7    14    1
@<TRIPOS>MOLECULE
*****
 32 35 0 0 0
SMALL
GASTEIGER

@<TRIPOS>ATOM
      1 C          58.9691   90.0214    6.2347 C.ar    1  UNL1       -0.0044
      2 C          58.4505   88.6233    6.3974 C.ar    1  UNL1       -0.0014
      3 C          58.9748   87.7525    7.5005 C.ar    1  UNL1        0.0144
      4 C          60.0177   88.2797    8.4409 C.ar    1  UNL1        0.0516
      5 C          60.5363   89.6779    8.2783 C.ar    1  UNL1        0.0144
      6 C          60.0120   90.5487    7.1752 C.ar    1  UNL1       -0.0014
      7 N          60.5419   87.4089    9.5440 N.am    1  UNL1       -0.2681
      8 C          61.4380   86.2497    9.2229 C.2     1  UNL1        0.3077
      9 O          61.8098   85.9613    7.7986 O.2     1  UNL1       -0.2522
     10 N          61.9623   85.3789   10.3260 N.am    1  UNL1       -0.2632
     11 C          62.8507   84.1721   10.3934 C.3     1  UNL1        0.1010
     12 C          62.7037   84.1474   11.8860 C.3     1  UNL1        0.0636
     13 C          61.8154   85.3542   11.8186 C.3     1  UNL1        0.1010
     14 H          60.2979   87.5983   10.4788 H       1  UNL1        0.1564
     15 C          63.2280   83.2766   12.9891 C.ar    1  UNL1       -0.0000
     16 C          63.1841   81.7836   12.8512 C.ar    1  UNL1       -0.0010
     17 C          63.7084   80.9128   13.9543 C.ar    1  UNL1        0.0204
     18 C          64.2766   81.5350   15.1953 C.ar    1  UNL1        0.0989
     19 N          64.3205   83.0280   15.3331 N.ar    1  UNL1       -0.2426
     20 C          63.7962   83.8988   14.2300 C.ar    1  UNL1        0.0947
     21 C          57.0264   91.3786    5.1699 C.3     1  UNL1        0.0262
     22 C          58.4448   90.8922    5.1316 C.3     1  UNL1        0.0941
     23 N          59.3390   91.2765    3.9902 N.am    1  UNL1       -0.3022
     24 C          59.7484   92.7079    3.8073 C.2     1  UNL1        0.2223
     25 O          59.2637   93.7550    4.7658 O.2     1  UNL1       -0.2751
     26 H          59.6572   90.5893    3.3611 H       1  UNL1        0.1497
     27 C          60.6426   93.0923    2.6659 C.3     1  UNL1        0.0815
     28 C          60.1627   94.0682    1.6329 C.3     1  UNL1        0.0412
     29 C          61.0568   94.4526    0.4916 C.3     1  UNL1        0.1427
     30 O          62.4310   93.8609    0.3832 O.3     1  UNL1       -0.3538
     31 C          62.9109   92.8849    1.4162 C.3     1  UNL1        0.1427
     32 C          62.0167   92.5006    2.5575 C.3     1  UNL1        0.0412
@<TRIPOS>BOND
     1    22    21    1
     2    22    23    1
     3    23    24   am
     4    24    25    2
     5    24    27    1
     6    27    28    1
     7    28    29    1
     8    29    30    1
     9    30    31    1
    10    31    32    1
    11    22     1    1
    12     1     2   ar
    13     2     3   ar
    14     3     4   ar
    15     4     7    1
    16     7     8   am
    17     8     9    2
    18     8    10   am
    19    10    11    1
    20    11    12    1
    21    12    15    1
    22    15    16   ar
    23    16    17   ar
    24    17    18   ar
    25    18    19   ar
    26    19    20   ar
    27    12    13    1
    28     4     5   ar
    29     5     6   ar
    30    32    27    1
    31     6     1   ar
    32    13    10    1
    33    20    15   ar
    34    23    26    1
    35     7    14    1
