@<TRIPOS>MOLECULE
*****
 33 37 0 0 0
SMALL
GASTEIGER

@<TRIPOS>ATOM
      1 C          60.9147   87.3286    8.9568 C.ar    1  UNL1        0.0291
      2 C          61.0459   88.8014    9.2091 C.ar    1  UNL1        0.0036
      3 C          60.4522   89.7836    8.2433 C.ar    1  UNL1        0.0152
      4 C          59.7274   89.2930    7.0251 C.ar    1  UNL1        0.0593
      5 C          59.5963   87.8202    6.7727 C.ar    1  UNL1        0.0446
      6 C          60.1899   86.8380    7.7386 C.ar    1  UNL1        0.1414
      7 F          60.0588   85.3652    7.4862 F       1  UNL1       -0.2041
      8 C          62.6957   84.3818   11.8541 C.ar    1  UNL1        0.1178
      9 C          63.0277   84.2923   10.3941 C.ar    1  UNL1        0.0221
     10 C          62.4341   85.2745    9.4284 C.ar    1  UNL1        0.0033
     11 C          61.5084   86.3463    9.9226 C.ar    1  UNL1        0.0213
     12 C          61.1763   86.4359   11.3826 C.ar    1  UNL1        0.0990
     13 N          61.7700   85.4537   12.3484 N.ar    1  UNL1       -0.2409
     14 O          63.0120   81.9337   12.6644 O.2     1  UNL1       -0.2877
     15 C          63.2893   83.3996   12.8200 C.2     1  UNL1        0.2133
     16 C          64.1602   83.8832   13.9414 C.3     1  UNL1        0.1784
     17 N          63.5669   84.6925   15.0564 N.ar    1  UNL1       -0.3003
     18 C          64.1792   85.9087   15.6856 C.ar    1  UNL1        0.0984
     19 C          63.2479   86.3955   16.7560 C.ar    1  UNL1        0.1193
     20 N          62.0600   85.4800   16.7883 N.ar    1  UNL1       -0.2223
     21 C          62.2572   84.4276   15.7379 C.ar    1  UNL1        0.1790
     22 N          59.1338   90.2752    6.0592 N.am    1  UNL1       -0.2212
     23 C          59.8988   91.2190    5.1795 C.3     1  UNL1        0.1471
     24 C          58.9088   92.0132    4.3801 C.3     1  UNL1        0.2149
     25 O          57.5318   91.5602    4.7658 O.3     1  UNL1       -0.4342
     26 C          57.6709   90.4861    5.8036 C.2     1  UNL1        0.4088
     27 O          56.5447   89.7517    6.4688 O.2     1  UNL1       -0.2258
     28 C          59.2378   93.0741    3.3720 C.3     1  UNL1        0.1745
     29 N          60.2590   92.8054    2.3066 N.ar    1  UNL1       -0.2264
     30 C          59.9839   92.6528    0.8400 C.ar    1  UNL1        0.1193
     31 C          61.2894   92.3952    0.1478 C.ar    1  UNL1        0.1441
     32 N          62.3715   92.3887    1.1867 N.ar    1  UNL1       -0.1271
     33 N          61.7347   92.6422    2.5209 N.ar    1  UNL1       -0.0636
@<TRIPOS>BOND
     1    14    15    2
     2    15    16    1
     3    16    17    1
     4    17    18   ar
     5    18    19   ar
     6    19    20   ar
     7    20    21   ar
     8    15     8    1
     9     8     9   ar
    10     9    10   ar
    11    10    11   ar
    12    11     1    1
    13     1     2   ar
    14     2     3   ar
    15     3     4   ar
    16     4    22    1
    17    22    23    1
    18    23    24    1
    19    24    28    1
    20    28    29    1
    21    29    30   ar
    22    30    31   ar
    23    31    32   ar
    24    32    33   ar
    25    24    25    1
    26    25    26    1
    27    26    27    2
    28     4     5   ar
    29     5     6   ar
    30     6     7    1
    31    11    12   ar
    32    12    13   ar
    33    21    17   ar
    34    13     8   ar
    35     6     1   ar
    36    26    22   am
    37    33    29   ar
@<TRIPOS>MOLECULE
*****
 33 37 0 0 0
SMALL
GASTEIGER

@<TRIPOS>ATOM
      1 C          63.7582   87.1755   13.7790 C.ar    1  UNL1        0.0291
      2 C          64.6198   87.7212   14.8789 C.ar    1  UNL1        0.0036
      3 C          65.0788   89.1486   14.8342 C.ar    1  UNL1        0.0152
      4 C          64.6761   90.0303   13.6894 C.ar    1  UNL1        0.0593
      5 C          63.8145   89.4846   12.5894 C.ar    1  UNL1        0.0446
      6 C          63.3556   88.0573   12.6342 C.ar    1  UNL1        0.1414
      7 F          62.4939   87.5116   11.5343 F       1  UNL1       -0.2041
      8 C          62.3813   82.8935   13.9131 C.ar    1  UNL1        0.1178
      9 C          62.5653   83.5811   12.5928 C.ar    1  UNL1        0.0221
     10 C          63.0243   85.0084   12.5481 C.ar    1  UNL1        0.0033
     11 C          63.2992   85.7481   13.8237 C.ar    1  UNL1        0.0213
     12 C          63.1153   85.0605   15.1441 C.ar    1  UNL1        0.0990
     13 N          62.6563   83.6332   15.1888 N.ar    1  UNL1       -0.2409
     14 O          60.5539   81.1342   14.4747 O.2     1  UNL1       -0.2877
     15 C          61.9224   81.4661   13.9579 C.2     1  UNL1        0.2133
     16 C          62.8319   80.3707   13.4859 C.3     1  UNL1        0.1784
     17 N          62.8301   79.9644   12.0419 N.ar    1  UNL1       -0.3003
     18 C          62.5861   78.5811   11.5156 C.ar    1  UNL1        0.0984
     19 C          62.6772   78.6317   10.0192 C.ar    1  UNL1        0.1193
     20 N          62.9775   80.0464    9.6207 N.ar    1  UNL1       -0.2223
     21 C          63.0719   80.8700   10.8709 C.ar    1  UNL1        0.1790
     22 N          65.1351   91.4576   13.6446 N.am    1  UNL1       -0.2212
     23 C          65.4146   92.2554   12.4055 C.3     1  UNL1        0.1471
     24 C          65.8473   93.6287   12.8261 C.3     1  UNL1        0.2149
     25 O          65.8353   93.6795   14.3253 O.3     1  UNL1       -0.4342
     26 C          65.3951   92.3378   14.8311 C.2     1  UNL1        0.4088
     27 O          65.2418   91.9451   16.2706 O.2     1  UNL1       -0.2258
     28 C          66.2257   94.7535   11.9088 C.3     1  UNL1        0.1745
     29 N          66.8804   94.4592   10.5916 N.ar    1  UNL1       -0.2264
     30 C          66.7870   95.3003    9.3532 C.ar    1  UNL1        0.1193
     31 C          67.5924   94.6331    8.2779 C.ar    1  UNL1        0.1441
     32 N          68.1836   93.3796    8.8518 N.ar    1  UNL1       -0.1271
     33 N          67.7436   93.2722   10.2818 N.ar    1  UNL1       -0.0636
@<TRIPOS>BOND
     1    14    15    2
     2    15    16    1
     3    16    17    1
     4    17    18   ar
     5    18    19   ar
     6    19    20   ar
     7    20    21   ar
     8    15     8    1
     9     8     9   ar
    10     9    10   ar
    11    10    11   ar
    12    11     1    1
    13     1     2   ar
    14     2     3   ar
    15     3     4   ar
    16     4    22    1
    17    22    23    1
    18    23    24    1
    19    24    28    1
    20    28    29    1
    21    29    30   ar
    22    30    31   ar
    23    31    32   ar
    24    32    33   ar
    25    24    25    1
    26    25    26    1
    27    26    27    2
    28     4     5   ar
    29     5     6   ar
    30     6     7    1
    31    11    12   ar
    32    12    13   ar
    33    21    17   ar
    34    13     8   ar
    35     6     1   ar
    36    26    22   am
    37    33    29   ar
@<TRIPOS>MOLECULE
*****
 33 37 0 0 0
SMALL
GASTEIGER

@<TRIPOS>ATOM
      1 C          62.0837   93.2120    2.0778 C.ar    1  UNL1        0.0291
      2 C          60.6662   93.6012    2.3762 C.ar    1  UNL1        0.0036
      3 C          59.8706   92.8229    3.3819 C.ar    1  UNL1        0.0152
      4 C          60.4926   91.6555    4.0892 C.ar    1  UNL1        0.0593
      5 C          61.9102   91.2663    3.7907 C.ar    1  UNL1        0.0446
      6 C          62.7057   92.0446    2.7851 C.ar    1  UNL1        0.1414
      7 F          64.1233   91.6554    2.4866 F       1  UNL1       -0.2041
      8 C          64.4705   95.5468   -0.9392 C.ar    1  UNL1        0.1178
      9 C          64.9366   95.4640    0.4841 C.ar    1  UNL1        0.0221
     10 C          64.1410   94.6857    1.4898 C.ar    1  UNL1        0.0033
     11 C          62.8793   93.9903    1.0721 C.ar    1  UNL1        0.0213
     12 C          62.4132   94.0731   -0.3512 C.ar    1  UNL1        0.0990
     13 N          63.2088   94.8513   -1.3568 N.ar    1  UNL1       -0.2409
     14 O          66.6219   96.8540   -1.5816 O.2     1  UNL1       -0.2877
     15 C          65.2661   96.3250   -1.9449 C.2     1  UNL1        0.2133
     16 C          64.7059   96.5743   -3.3138 C.3     1  UNL1        0.1784
     17 N          65.0408   95.6442   -4.4421 N.ar    1  UNL1       -0.3003
     18 C          64.7554   94.1723   -4.4855 C.ar    1  UNL1        0.0984
     19 C          65.2582   93.6411   -5.7952 C.ar    1  UNL1        0.1193
     20 N          65.8542   94.7849   -6.5611 N.ar    1  UNL1       -0.2223
     21 C          65.7199   96.0229   -5.7248 C.ar    1  UNL1        0.1790
     22 N          59.6971   90.8772    5.0949 N.am    1  UNL1       -0.2212
     23 C          60.2090   89.7514    5.9437 C.3     1  UNL1        0.1471
     24 C          59.0783   89.2665    6.8018 C.3     1  UNL1        0.2149
     25 O          57.8674   90.0927    6.4832 O.3     1  UNL1       -0.4342
     26 C          58.2499   91.0881    5.4283 C.2     1  UNL1        0.4088
     27 O          57.3442   92.1143    4.8146 O.2     1  UNL1       -0.2258
     28 C          59.1464   88.1513    7.8026 C.3     1  UNL1        0.1745
     29 N          59.8999   88.3402    9.0858 N.ar    1  UNL1       -0.2264
     30 C          60.2038   89.6529    9.7448 C.ar    1  UNL1        0.1193
     31 C          60.9735   89.3734   11.0015 C.ar    1  UNL1        0.1441
     32 N          61.1453   87.8879   11.1193 N.ar    1  UNL1       -0.1271
     33 N          60.4817   87.2493    9.9353 N.ar    1  UNL1       -0.0636
@<TRIPOS>BOND
     1    14    15    2
     2    15    16    1
     3    16    17    1
     4    17    18   ar
     5    18    19   ar
     6    19    20   ar
     7    20    21   ar
     8    15     8    1
     9     8     9   ar
    10     9    10   ar
    11    10    11   ar
    12    11     1    1
    13     1     2   ar
    14     2     3   ar
    15     3     4   ar
    16     4    22    1
    17    22    23    1
    18    23    24    1
    19    24    28    1
    20    28    29    1
    21    29    30   ar
    22    30    31   ar
    23    31    32   ar
    24    32    33   ar
    25    24    25    1
    26    25    26    1
    27    26    27    2
    28     4     5   ar
    29     5     6   ar
    30     6     7    1
    31    11    12   ar
    32    12    13   ar
    33    21    17   ar
    34    13     8   ar
    35     6     1   ar
    36    26    22   am
    37    33    29   ar
@<TRIPOS>MOLECULE
*****
 33 37 0 0 0
SMALL
GASTEIGER

@<TRIPOS>ATOM
      1 C          64.5824   90.1515   13.2366 C.ar    1  UNL1        0.0291
      2 C          65.0568   89.6334   14.5619 C.ar    1  UNL1        0.0036
      3 C          64.6337   88.2725   15.0302 C.ar    1  UNL1        0.0152
      4 C          63.7362   87.4299   14.1732 C.ar    1  UNL1        0.0593
      5 C          63.2618   87.9481   12.8479 C.ar    1  UNL1        0.0446
      6 C          63.6849   89.3089   12.3796 C.ar    1  UNL1        0.1414
      7 F          63.2104   89.8271   11.0543 F       1  UNL1       -0.2041
      8 C          65.8515   94.2338   11.8318 C.ar    1  UNL1        0.1178
      9 C          66.2432   93.7557   13.1985 C.ar    1  UNL1        0.0221
     10 C          65.8201   92.3949   13.6667 C.ar    1  UNL1        0.0033
     11 C          65.0054   91.5123   12.7683 C.ar    1  UNL1        0.0213
     12 C          64.6138   91.9905   11.4016 C.ar    1  UNL1        0.0990
     13 N          65.0368   93.3512   10.9333 N.ar    1  UNL1       -0.2409
     14 O          65.8555   96.8149   12.1285 O.2     1  UNL1       -0.2877
     15 C          66.2746   95.5947   11.3634 C.2     1  UNL1        0.2133
     16 C          67.1167   95.7351   10.1301 C.3     1  UNL1        0.1784
     17 N          67.7351   94.5214    9.5020 N.ar    1  UNL1       -0.3003
     18 C          68.4340   93.4114   10.2296 C.ar    1  UNL1        0.0984
     19 C          68.8941   92.4086    9.2132 C.ar    1  UNL1        0.1193
     20 N          68.4796   92.8990    7.8576 N.ar    1  UNL1       -0.2223
     21 C          67.7633   94.2048    8.0361 C.ar    1  UNL1        0.1790
     22 N          63.3132   86.0692   14.6415 N.am    1  UNL1       -0.2212
     23 C          63.0872   84.8682   13.7716 C.3     1  UNL1        0.1471
     24 C          62.6762   83.7272   14.6544 C.3     1  UNL1        0.2149
     25 O          62.6481   84.2231   16.0698 O.3     1  UNL1       -0.4342
     26 C          63.0418   85.6705   16.0618 C.2     1  UNL1        0.4088
     27 O          63.1458   86.5625   17.2632 O.2     1  UNL1       -0.2258
     28 C          62.3504   82.3349   14.2013 C.3     1  UNL1        0.1745
     29 N          62.7251   81.8891   12.8189 N.ar    1  UNL1       -0.2264
     30 C          62.6986   80.4783   12.3100 C.ar    1  UNL1        0.1193
     31 C          63.1492   80.4932   10.8793 C.ar    1  UNL1        0.1441
     32 N          63.4541   81.9131   10.5040 N.ar    1  UNL1       -0.1271
     33 N          63.1920   82.7759   11.7028 N.ar    1  UNL1       -0.0636
@<TRIPOS>BOND
     1    14    15    2
     2    15    16    1
     3    16    17    1
     4    17    18   ar
     5    18    19   ar
     6    19    20   ar
     7    20    21   ar
     8    15     8    1
     9     8     9   ar
    10     9    10   ar
    11    10    11   ar
    12    11     1    1
    13     1     2   ar
    14     2     3   ar
    15     3     4   ar
    16     4    22    1
    17    22    23    1
    18    23    24    1
    19    24    28    1
    20    28    29    1
    21    29    30   ar
    22    30    31   ar
    23    31    32   ar
    24    32    33   ar
    25    24    25    1
    26    25    26    1
    27    26    27    2
    28     4     5   ar
    29     5     6   ar
    30     6     7    1
    31    11    12   ar
    32    12    13   ar
    33    21    17   ar
    34    13     8   ar
    35     6     1   ar
    36    26    22   am
    37    33    29   ar
@<TRIPOS>MOLECULE
*****
 33 37 0 0 0
SMALL
GASTEIGER

@<TRIPOS>ATOM
      1 C          62.0877   93.3243    1.1782 C.ar    1  UNL1        0.0291
      2 C          61.3571   94.1168    0.1351 C.ar    1  UNL1        0.0036
      3 C          62.1138   94.7382   -1.0013 C.ar    1  UNL1        0.0152
      4 C          63.6011   94.5671   -1.0945 C.ar    1  UNL1        0.0593
      5 C          64.3317   93.7745   -0.0513 C.ar    1  UNL1        0.0446
      6 C          63.5750   93.1532    1.0850 C.ar    1  UNL1        0.1414
      7 F          64.3056   92.3606    2.1282 F       1  UNL1       -0.2041
      8 C          59.8178   91.4600    4.5873 C.ar    1  UNL1        0.1178
      9 C          61.2775   91.1652    4.4081 C.ar    1  UNL1        0.0221
     10 C          62.0342   91.7866    3.2717 C.ar    1  UNL1        0.0033
     11 C          61.3310   92.7028    2.3146 C.ar    1  UNL1        0.0213
     12 C          59.8712   92.9976    2.4938 C.ar    1  UNL1        0.0990
     13 N          59.1146   92.3762    3.6301 N.ar    1  UNL1       -0.2409
     14 O          57.5907   90.5737    5.5897 O.2     1  UNL1       -0.2877
     15 C          59.0611   90.8385    5.7237 C.2     1  UNL1        0.2133
     16 C          59.7747   90.4819    6.9939 C.3     1  UNL1        0.1784
     17 N          59.6406   89.1025    7.5677 N.ar    1  UNL1       -0.3003
     18 C          58.9765   87.9325    6.9043 C.ar    1  UNL1        0.0984
     19 C          59.0724   86.7577    7.8323 C.ar    1  UNL1        0.1193
     20 N          59.7957   87.2019    9.0691 N.ar    1  UNL1       -0.2223
     21 C          60.1469   88.6510    8.9055 C.ar    1  UNL1        0.1790
     22 N          64.3578   95.1885   -2.2308 N.am    1  UNL1       -0.2212
     23 C          64.1846   94.8672   -3.6857 C.3     1  UNL1        0.1471
     24 C          65.1403   95.7204   -4.4658 C.3     1  UNL1        0.2149
     25 O          65.9042   96.5691   -3.4930 O.3     1  UNL1       -0.4342
     26 C          65.4205   96.2403   -2.1117 C.2     1  UNL1        0.4088
     27 O          65.9132   96.8554   -0.8354 O.2     1  UNL1       -0.2258
     28 C          65.3035   95.7243   -5.9569 C.3     1  UNL1        0.1745
     29 N          66.5893   95.2568   -6.5719 N.ar    1  UNL1       -0.2264
     30 C          67.7839   96.1119   -6.8749 C.ar    1  UNL1        0.1193
     31 C          68.8391   95.2356   -7.4821 C.ar    1  UNL1        0.1441
     32 N          68.2967   93.8390   -7.5544 N.ar    1  UNL1       -0.1271
     33 N          66.9062   93.8520   -6.9918 N.ar    1  UNL1       -0.0636
@<TRIPOS>BOND
     1    14    15    2
     2    15    16    1
     3    16    17    1
     4    17    18   ar
     5    18    19   ar
     6    19    20   ar
     7    20    21   ar
     8    15     8    1
     9     8     9   ar
    10     9    10   ar
    11    10    11   ar
    12    11     1    1
    13     1     2   ar
    14     2     3   ar
    15     3     4   ar
    16     4    22    1
    17    22    23    1
    18    23    24    1
    19    24    28    1
    20    28    29    1
    21    29    30   ar
    22    30    31   ar
    23    31    32   ar
    24    32    33   ar
    25    24    25    1
    26    25    26    1
    27    26    27    2
    28     4     5   ar
    29     5     6   ar
    30     6     7    1
    31    11    12   ar
    32    12    13   ar
    33    21    17   ar
    34    13     8   ar
    35     6     1   ar
    36    26    22   am
    37    33    29   ar
@<TRIPOS>MOLECULE
*****
 33 37 0 0 0
SMALL
GASTEIGER

@<TRIPOS>ATOM
      1 C          61.0510   87.8153    9.3310 C.ar    1  UNL1        0.0291
      2 C          60.2161   87.1729    8.2633 C.ar    1  UNL1        0.0036
      3 C          59.5813   88.0170    7.1981 C.ar    1  UNL1        0.0152
      4 C          59.7816   89.5036    7.2007 C.ar    1  UNL1        0.0593
      5 C          60.6167   90.1460    8.2685 C.ar    1  UNL1        0.0446
      6 C          61.2513   89.3019    9.3336 C.ar    1  UNL1        0.1414
      7 F          62.0864   89.9443   10.4014 F       1  UNL1       -0.2041
      8 C          62.9551   85.2829   12.5265 C.ar    1  UNL1        0.1178
      9 C          62.2281   84.6317   11.3876 C.ar    1  UNL1        0.0221
     10 C          61.5934   85.4758   10.3224 C.ar    1  UNL1        0.0033
     11 C          61.6858   86.9711   10.3963 C.ar    1  UNL1        0.0213
     12 C          62.4129   87.6223   11.5352 C.ar    1  UNL1        0.0990
     13 N          63.0475   86.7782   12.6003 N.ar    1  UNL1       -0.2409
     14 O          65.0687   84.5185   13.8299 O.2     1  UNL1       -0.2877
     15 C          63.5899   84.4387   13.5917 C.2     1  UNL1        0.2133
     16 C          62.7458   83.5148   14.4187 C.3     1  UNL1        0.1784
     17 N          62.4599   82.1244   13.9339 N.ar    1  UNL1       -0.3003
     18 C          63.3203   81.3203   13.0048 C.ar    1  UNL1        0.0984
     19 C          62.6555   79.9929   12.7897 C.ar    1  UNL1        0.1193
     20 N          61.3843   79.9767   13.5860 N.ar    1  UNL1       -0.2223
     21 C          61.2635   81.2940   14.2931 C.ar    1  UNL1        0.1790
     22 N          59.1470   90.3477    6.1356 N.am    1  UNL1       -0.2212
     23 C          59.8682   91.2543    5.1826 C.3     1  UNL1        0.1471
     24 C          58.8466   91.9004    4.2944 C.3     1  UNL1        0.2149
     25 O          57.4940   91.3931    4.6985 O.3     1  UNL1       -0.4342
     26 C          57.6796   90.4335    5.8363 C.2     1  UNL1        0.4088
     27 O          56.5894   89.6903    6.5497 O.2     1  UNL1       -0.2258
     28 C          59.1281   92.8814    3.1952 C.3     1  UNL1        0.1745
     29 N          60.2876   92.6588    2.2700 N.ar    1  UNL1       -0.2264
     30 C          61.7367   92.6553    2.6575 C.ar    1  UNL1        0.1193
     31 C          62.5462   92.3949    1.4218 C.ar    1  UNL1        0.1441
     32 N          61.5975   92.2375    0.2707 N.ar    1  UNL1       -0.1271
     33 N          60.2016   92.4006    0.7949 N.ar    1  UNL1       -0.0636
@<TRIPOS>BOND
     1    14    15    2
     2    15    16    1
     3    16    17    1
     4    17    18   ar
     5    18    19   ar
     6    19    20   ar
     7    20    21   ar
     8    15     8    1
     9     8     9   ar
    10     9    10   ar
    11    10    11   ar
    12    11     1    1
    13     1     2   ar
    14     2     3   ar
    15     3     4   ar
    16     4    22    1
    17    22    23    1
    18    23    24    1
    19    24    28    1
    20    28    29    1
    21    29    30   ar
    22    30    31   ar
    23    31    32   ar
    24    32    33   ar
    25    24    25    1
    26    25    26    1
    27    26    27    2
    28     4     5   ar
    29     5     6   ar
    30     6     7    1
    31    11    12   ar
    32    12    13   ar
    33    21    17   ar
    34    13     8   ar
    35     6     1   ar
    36    26    22   am
    37    33    29   ar
@<TRIPOS>MOLECULE
*****
 33 37 0 0 0
SMALL
GASTEIGER

@<TRIPOS>ATOM
      1 C          63.8264   86.1420   13.6442 C.ar    1  UNL1        0.0291
      2 C          64.5968   86.4924   14.8826 C.ar    1  UNL1        0.0036
      3 C          64.9116   87.9267   15.1894 C.ar    1  UNL1        0.0152
      4 C          64.4558   89.0104   14.2578 C.ar    1  UNL1        0.0593
      5 C          63.6853   88.6599   13.0194 C.ar    1  UNL1        0.0446
      6 C          63.3706   87.2257   12.7126 C.ar    1  UNL1        0.1414
      7 F          62.6001   86.8752   11.4742 F       1  UNL1       -0.2041
      8 C          62.8821   81.8395   12.7239 C.ar    1  UNL1        0.1178
      9 C          62.7078   82.3639   14.1184 C.ar    1  UNL1        0.0221
     10 C          63.0225   83.7981   14.4251 C.ar    1  UNL1        0.0033
     11 C          63.5116   84.7078   13.3374 C.ar    1  UNL1        0.0213
     12 C          63.6860   84.1834   11.9430 C.ar    1  UNL1        0.0990
     13 N          63.3712   82.7493   11.6362 N.ar    1  UNL1       -0.2409
     14 O          62.7409   79.8812   11.0224 O.2     1  UNL1       -0.2877
     15 C          62.5674   80.4053   12.4171 C.2     1  UNL1        0.2133
     16 C          62.0792   79.4953   13.5050 C.3     1  UNL1        0.1784
     17 N          60.6543   79.5756   13.9669 N.ar    1  UNL1       -0.3003
     18 C          59.7633   78.4113   14.2837 C.ar    1  UNL1        0.0984
     19 C          58.4286   78.9504   14.7058 C.ar    1  UNL1        0.1193
     20 N          58.4949   80.4480   14.6498 N.ar    1  UNL1       -0.2223
     21 C          59.8704   80.8343   14.1932 C.ar    1  UNL1        0.1790
     22 N          64.7705   90.4445   14.5645 N.am    1  UNL1       -0.2212
     23 C          65.6717   91.3396   13.7666 C.3     1  UNL1        0.1471
     24 C          65.6975   92.6837   14.4320 C.3     1  UNL1        0.2149
     25 O          64.8121   92.6193   15.6412 O.3     1  UNL1       -0.4342
     26 C          64.2392   91.2354   15.7231 C.2     1  UNL1        0.4088
     27 O          63.3000   90.7310   16.7783 O.2     1  UNL1       -0.2258
     28 C          66.4724   93.8818   13.9695 C.3     1  UNL1        0.1745
     29 N          66.6371   94.1479   12.5025 N.ar    1  UNL1       -0.2264
     30 C          66.1822   95.3770   11.7729 C.ar    1  UNL1        0.1193
     31 C          66.5495   95.2204   10.3270 C.ar    1  UNL1        0.1441
     32 N          67.2315   93.8944   10.1630 N.ar    1  UNL1       -0.1271
     33 N          67.2856   93.2316   11.5075 N.ar    1  UNL1       -0.0636
@<TRIPOS>BOND
     1    14    15    2
     2    15    16    1
     3    16    17    1
     4    17    18   ar
     5    18    19   ar
     6    19    20   ar
     7    20    21   ar
     8    15     8    1
     9     8     9   ar
    10     9    10   ar
    11    10    11   ar
    12    11     1    1
    13     1     2   ar
    14     2     3   ar
    15     3     4   ar
    16     4    22    1
    17    22    23    1
    18    23    24    1
    19    24    28    1
    20    28    29    1
    21    29    30   ar
    22    30    31   ar
    23    31    32   ar
    24    32    33   ar
    25    24    25    1
    26    25    26    1
    27    26    27    2
    28     4     5   ar
    29     5     6   ar
    30     6     7    1
    31    11    12   ar
    32    12    13   ar
    33    21    17   ar
    34    13     8   ar
    35     6     1   ar
    36    26    22   am
    37    33    29   ar
@<TRIPOS>MOLECULE
*****
 33 37 0 0 0
SMALL
GASTEIGER

@<TRIPOS>ATOM
      1 C          59.6875   92.0748    3.8493 C.ar    1  UNL1        0.0291
      2 C          58.4099   91.7562    4.5678 C.ar    1  UNL1        0.0036
      3 C          58.4258   90.8413    5.7564 C.ar    1  UNL1        0.0152
      4 C          59.7195   90.2449    6.2264 C.ar    1  UNL1        0.0593
      5 C          60.9971   90.5635    5.5079 C.ar    1  UNL1        0.0446
      6 C          60.9811   91.4784    4.3193 C.ar    1  UNL1        0.1414
      7 F          62.2587   91.7970    3.6008 F       1  UNL1       -0.2041
      8 C          59.6396   94.8196    0.2837 C.ar    1  UNL1        0.1178
      9 C          60.2566   95.2753    1.5727 C.ar    1  UNL1        0.0221
     10 C          60.2725   94.3604    2.7612 C.ar    1  UNL1        0.0033
     11 C          59.6715   92.9897    2.6607 C.ar    1  UNL1        0.0213
     12 C          59.0545   92.5340    1.3717 C.ar    1  UNL1        0.0990
     13 N          59.0386   93.4490    0.1832 N.ar    1  UNL1       -0.2409
     14 O          58.3170   96.1598   -1.5065 O.2     1  UNL1       -0.2877
     15 C          59.6236   95.7346   -0.9049 C.2     1  UNL1        0.2133
     16 C          60.9142   96.2242   -1.4919 C.3     1  UNL1        0.1784
     17 N          62.0883   95.2969   -1.6005 N.ar    1  UNL1       -0.3003
     18 C          62.2764   94.2306   -2.6385 C.ar    1  UNL1        0.0984
     19 C          63.5848   93.5478   -2.3698 C.ar    1  UNL1        0.1193
     20 N          64.2052   94.1922   -1.1656 N.ar    1  UNL1       -0.2223
     21 C          63.2803   95.2732   -0.6902 C.ar    1  UNL1        0.1790
     22 N          59.7355   89.3300    7.4149 N.am    1  UNL1       -0.2212
     23 C          60.0816   89.7182    8.8219 C.3     1  UNL1        0.1471
     24 C          59.9682   88.4944    9.6817 C.3     1  UNL1        0.2149
     25 O          59.5520   87.3497    8.8061 O.3     1  UNL1       -0.4342
     26 C          59.4082   87.8662    7.4052 C.2     1  UNL1        0.4088
     27 O          59.0074   87.0603    6.2053 O.2     1  UNL1       -0.2258
     28 C          60.2258   88.4270   11.1579 C.3     1  UNL1        0.1745
     29 N          61.5176   88.9441   11.7182 N.ar    1  UNL1       -0.2264
     30 C          61.9067   90.3868   11.8499 C.ar    1  UNL1        0.1193
     31 C          63.2766   90.4436   12.4583 C.ar    1  UNL1        0.1441
     32 N          63.7341   89.0361   12.7026 N.ar    1  UNL1       -0.1271
     33 N          62.6470   88.1094   12.2452 N.ar    1  UNL1       -0.0636
@<TRIPOS>BOND
     1    14    15    2
     2    15    16    1
     3    16    17    1
     4    17    18   ar
     5    18    19   ar
     6    19    20   ar
     7    20    21   ar
     8    15     8    1
     9     8     9   ar
    10     9    10   ar
    11    10    11   ar
    12    11     1    1
    13     1     2   ar
    14     2     3   ar
    15     3     4   ar
    16     4    22    1
    17    22    23    1
    18    23    24    1
    19    24    28    1
    20    28    29    1
    21    29    30   ar
    22    30    31   ar
    23    31    32   ar
    24    32    33   ar
    25    24    25    1
    26    25    26    1
    27    26    27    2
    28     4     5   ar
    29     5     6   ar
    30     6     7    1
    31    11    12   ar
    32    12    13   ar
    33    21    17   ar
    34    13     8   ar
    35     6     1   ar
    36    26    22   am
    37    33    29   ar
@<TRIPOS>MOLECULE
*****
 33 37 0 0 0
SMALL
GASTEIGER

@<TRIPOS>ATOM
      1 C          59.8656   90.6957    5.6296 C.ar    1  UNL1        0.0291
      2 C          61.0900   91.0858    4.8559 C.ar    1  UNL1        0.0036
      3 C          60.9590   91.9134    3.6116 C.ar    1  UNL1        0.0152
      4 C          59.6035   92.3507    3.1411 C.ar    1  UNL1        0.0593
      5 C          58.3791   91.9606    3.9148 C.ar    1  UNL1        0.0446
      6 C          58.5102   91.1331    5.1590 C.ar    1  UNL1        0.1414
      7 F          57.2857   90.7430    5.9328 F       1  UNL1       -0.2041
      8 C          60.2587   88.2132    9.3622 C.ar    1  UNL1        0.1178
      9 C          59.5181   87.6714    8.1757 C.ar    1  UNL1        0.0221
     10 C          59.3871   88.4989    6.9315 C.ar    1  UNL1        0.0033
     11 C          59.9967   89.8682    6.8739 C.ar    1  UNL1        0.0213
     12 C          60.7372   90.4101    8.0604 C.ar    1  UNL1        0.0990
     13 N          60.8682   89.5826    9.3046 N.ar    1  UNL1       -0.2409
     14 O          59.7225   87.8281   11.8751 O.2     1  UNL1       -0.2877
     15 C          60.3897   87.3857   10.6065 C.2     1  UNL1        0.2133
     16 C          61.1879   86.1160   10.5822 C.3     1  UNL1        0.1784
     17 N          62.1565   85.8177   11.6880 N.ar    1  UNL1       -0.3003
     18 C          62.5138   84.4550   12.2033 C.ar    1  UNL1        0.0984
     19 C          63.5160   84.6248   13.3064 C.ar    1  UNL1        0.1193
     20 N          63.7781   86.0924   13.4728 N.ar    1  UNL1       -0.2223
     21 C          62.9378   86.8296   12.4726 C.ar    1  UNL1        0.1790
     22 N          59.4725   93.1782    1.8969 N.am    1  UNL1       -0.2212
     23 C          58.9976   92.6911    0.5600 C.3     1  UNL1        0.1471
     24 C          59.0249   93.8499   -0.3920 C.3     1  UNL1        0.2149
     25 O          59.5166   95.0532    0.3565 O.3     1  UNL1       -0.4342
     26 C          59.7932   94.6380    1.7711 C.2     1  UNL1        0.4088
     27 O          60.3014   95.5268    2.8674 O.2     1  UNL1       -0.2258
     28 C          58.6298   93.8120   -1.8386 C.3     1  UNL1        0.1745
     29 N          57.5765   92.8505   -2.3035 N.ar    1  UNL1       -0.2264
     30 C          57.5451   92.1509   -3.6299 C.ar    1  UNL1        0.1193
     31 C          56.3189   91.2879   -3.6698 C.ar    1  UNL1        0.1441
     32 N          55.5925   91.4541   -2.3679 N.ar    1  UNL1       -0.1271
     33 N          56.3697   92.4199   -1.5235 N.ar    1  UNL1       -0.0636
@<TRIPOS>BOND
     1    14    15    2
     2    15    16    1
     3    16    17    1
     4    17    18   ar
     5    18    19   ar
     6    19    20   ar
     7    20    21   ar
     8    15     8    1
     9     8     9   ar
    10     9    10   ar
    11    10    11   ar
    12    11     1    1
    13     1     2   ar
    14     2     3   ar
    15     3     4   ar
    16     4    22    1
    17    22    23    1
    18    23    24    1
    19    24    28    1
    20    28    29    1
    21    29    30   ar
    22    30    31   ar
    23    31    32   ar
    24    32    33   ar
    25    24    25    1
    26    25    26    1
    27    26    27    2
    28     4     5   ar
    29     5     6   ar
    30     6     7    1
    31    11    12   ar
    32    12    13   ar
    33    21    17   ar
    34    13     8   ar
    35     6     1   ar
    36    26    22   am
    37    33    29   ar
