@<TRIPOS>MOLECULE
*****
 39 43 0 0 0
SMALL
GASTEIGER

@<TRIPOS>ATOM
      1 C          63.6332   87.3101   14.7978 C.3     1  UNL1        0.0743
      2 C          63.1875   87.7068   16.1740 C.3     1  UNL1        0.0369
      3 C          63.4199   89.1056   16.6635 C.3     1  UNL1        0.0741
      4 N          64.0980   90.1075   15.7768 N.3     1  UNL1       -0.2688
      5 C          64.5437   89.7108   14.4006 C.3     1  UNL1        0.0741
      6 C          64.3113   88.3121   13.9110 C.3     1  UNL1        0.0369
      7 C          63.1236   85.6616   12.8554 C.2     1  UNL1        0.2254
      8 O          63.0788   86.8105   11.8921 O.2     1  UNL1       -0.2748
      9 N          63.4008   85.9114   14.3083 N.am    1  UNL1       -0.3056
     10 H          63.4302   85.1573   14.9405 H       1  UNL1        0.1494
     11 N          63.1440   81.4262   13.3091 N.3     1  UNL1       -0.2726
     12 C          62.6373   81.7148   11.9271 C.3     1  UNL1        0.0729
     13 C          62.5109   83.1331   11.4555 C.3     1  UNL1        0.0301
     14 C          62.8912   84.2629   12.3659 C.3     1  UNL1        0.0902
     15 C          63.3979   83.9743   13.7479 C.3     1  UNL1        0.0301
     16 C          63.5243   82.5560   14.2195 C.3     1  UNL1        0.0729
     17 C          62.4653   85.0372   11.1538 C.ar    1  UNL1       -0.0145
     18 C          63.1965   84.8611    9.8561 C.ar    1  UNL1       -0.0038
     19 C          62.7706   85.6353    8.6441 C.ar    1  UNL1       -0.0003
     20 C          61.6133   86.5858    8.7298 C.ar    1  UNL1       -0.0000
     21 C          60.8820   86.7619   10.0275 C.ar    1  UNL1       -0.0003
     22 C          61.3080   85.9876   11.2396 C.ar    1  UNL1       -0.0038
     23 C          62.0870   79.0883   13.7175 C.3     1  UNL1        0.0188
     24 C          63.2703   80.0079   13.7807 C.3     1  UNL1        0.0721
     25 C          64.3303   91.5062   16.2663 C.3     1  UNL1        0.0992
     26 C          65.4555   92.3214   15.7010 C.ar    1  UNL1       -0.0031
     27 C          66.7316   92.4764   16.4742 C.ar    1  UNL1       -0.0027
     28 C          67.8567   93.2916   15.9089 C.ar    1  UNL1        0.0029
     29 C          67.7059   93.9518   14.5705 C.ar    1  UNL1        0.0375
     30 C          66.4298   93.7968   13.7973 C.ar    1  UNL1        0.1451
     31 C          65.3047   92.9816   14.3626 C.ar    1  UNL1        0.0346
     32 O          66.2790   94.4570   12.4590 O.3     1  UNL1       -0.4527
     33 C          66.9720   93.8848   11.2580 C.ar    1  UNL1        0.1557
     34 C          67.3859   92.4430   11.2471 C.ar    1  UNL1        0.0384
     35 C          68.0790   91.8708   10.0460 C.ar    1  UNL1        0.0032
     36 C          68.3580   92.7403    8.8561 C.ar    1  UNL1        0.0011
     37 C          67.9442   94.1821    8.8671 C.ar    1  UNL1        0.0145
     38 C          67.2512   94.7542   10.0680 C.ar    1  UNL1        0.0921
     39 CL         66.8373   96.1960   10.0789 Cl      1  UNL1       -0.0791
@<TRIPOS>BOND
     1    23    24    1
     2    24    11    1
     3    11    12    1
     4    12    13    1
     5    13    14    1
     6    14     7    1
     7     7     8    2
     8     7     9   am
     9     9     1    1
    10     1     2    1
    11     2     3    1
    12     3     4    1
    13     4    25    1
    14    25    26    1
    15    26    27   ar
    16    27    28   ar
    17    28    29   ar
    18    29    30   ar
    19    30    32    1
    20    32    33    1
    21    33    34   ar
    22    34    35   ar
    23    35    36   ar
    24    36    37   ar
    25    37    38   ar
    26    38    39    1
    27    30    31   ar
    28     4     5    1
    29     5     6    1
    30    14    17    1
    31    17    18   ar
    32    18    19   ar
    33    19    20   ar
    34    20    21   ar
    35    21    22   ar
    36    14    15    1
    37    15    16    1
    38    16    11    1
    39     6     1    1
    40    22    17   ar
    41    31    26   ar
    42    38    33   ar
    43     9    10    1
@<TRIPOS>MOLECULE
*****
 39 43 0 0 0
SMALL
GASTEIGER

@<TRIPOS>ATOM
      1 C          64.2047   90.0148   13.3495 C.3     1  UNL1        0.0743
      2 C          64.6981   89.2780   14.5593 C.3     1  UNL1        0.0369
      3 C          64.4293   87.8094   14.7045 C.3     1  UNL1        0.0741
      4 N          63.6671   87.0777   13.6398 N.3     1  UNL1       -0.2688
      5 C          63.1736   87.8145   12.4300 C.3     1  UNL1        0.0741
      6 C          63.4424   89.2831   12.2848 C.3     1  UNL1        0.0369
      7 C          65.8205   91.9575   12.7453 C.2     1  UNL1        0.2254
      8 O          66.8986   90.9631   12.4313 O.2     1  UNL1       -0.2748
      9 N          64.4735   91.4834   13.2044 N.am    1  UNL1       -0.3056
     10 H          63.7658   92.1361   13.4104 H       1  UNL1        0.1494
     11 N          65.6243   95.6668   10.6602 N.3     1  UNL1       -0.2726
     12 C          66.3426   95.9289   11.9507 C.3     1  UNL1        0.0729
     13 C          66.5751   94.8085   12.9206 C.3     1  UNL1        0.0301
     14 C          66.0893   93.4261   12.6001 C.3     1  UNL1        0.0902
     15 C          65.3710   93.1640   11.3097 C.3     1  UNL1        0.0301
     16 C          65.1385   94.2844   10.3397 C.3     1  UNL1        0.0729
     17 C          66.7143   93.1782   13.9410 C.ar    1  UNL1       -0.0145
     18 C          68.2075   93.1332   14.0757 C.ar    1  UNL1       -0.0038
     19 C          68.8325   92.8853   15.4165 C.ar    1  UNL1       -0.0003
     20 C          67.9642   92.6823   16.6227 C.ar    1  UNL1       -0.0000
     21 C          66.4709   92.7273   16.4881 C.ar    1  UNL1       -0.0003
     22 C          65.8459   92.9752   15.1472 C.ar    1  UNL1       -0.0038
     23 C          66.1805   96.8518    8.4161 C.3     1  UNL1        0.0188
     24 C          65.3918   96.7871    9.6903 C.3     1  UNL1        0.0721
     25 C          63.3983   85.6091   13.7850 C.3     1  UNL1        0.0992
     26 C          63.5885   84.6925   12.6130 C.ar    1  UNL1       -0.0031
     27 C          64.1620   83.3216   12.8182 C.ar    1  UNL1       -0.0027
     28 C          64.3522   82.4051   11.6462 C.ar    1  UNL1        0.0029
     29 C          63.9689   82.8591   10.2690 C.ar    1  UNL1        0.0375
     30 C          63.3953   84.2299   10.0637 C.ar    1  UNL1        0.1451
     31 C          63.2051   85.1466   11.2357 C.ar    1  UNL1        0.0346
     32 O          63.0120   84.6839    8.6865 O.3     1  UNL1       -0.4527
     33 C          61.8215   85.5761    8.4950 C.ar    1  UNL1        0.1557
     34 C          61.4884   86.6137    9.5258 C.ar    1  UNL1        0.0384
     35 C          60.2978   87.5059    9.3343 C.ar    1  UNL1        0.0032
     36 C          59.4405   87.3605    8.1122 C.ar    1  UNL1        0.0011
     37 C          59.7735   86.3229    7.0814 C.ar    1  UNL1        0.0145
     38 C          60.9640   85.4307    7.2729 C.ar    1  UNL1        0.0921
     39 CL         61.2971   84.3931    6.2421 Cl      1  UNL1       -0.0791
@<TRIPOS>BOND
     1    23    24    1
     2    24    11    1
     3    11    12    1
     4    12    13    1
     5    13    14    1
     6    14     7    1
     7     7     8    2
     8     7     9   am
     9     9     1    1
    10     1     2    1
    11     2     3    1
    12     3     4    1
    13     4    25    1
    14    25    26    1
    15    26    27   ar
    16    27    28   ar
    17    28    29   ar
    18    29    30   ar
    19    30    32    1
    20    32    33    1
    21    33    34   ar
    22    34    35   ar
    23    35    36   ar
    24    36    37   ar
    25    37    38   ar
    26    38    39    1
    27    30    31   ar
    28     4     5    1
    29     5     6    1
    30    14    17    1
    31    17    18   ar
    32    18    19   ar
    33    19    20   ar
    34    20    21   ar
    35    21    22   ar
    36    14    15    1
    37    15    16    1
    38    16    11    1
    39     6     1    1
    40    22    17   ar
    41    31    26   ar
    42    38    33   ar
    43     9    10    1
@<TRIPOS>MOLECULE
*****
 39 43 0 0 0
SMALL
GASTEIGER

@<TRIPOS>ATOM
      1 C          63.7698   86.9451   13.1262 C.3     1  UNL1        0.0743
      2 C          64.3339   86.9951   14.5152 C.3     1  UNL1        0.0369
      3 C          64.4378   88.3067   15.2356 C.3     1  UNL1        0.0741
      4 N          63.9775   89.5681   14.5671 N.3     1  UNL1       -0.2688
      5 C          63.4134   89.5181   13.1781 C.3     1  UNL1        0.0741
      6 C          63.3095   88.2065   12.4576 C.3     1  UNL1        0.0369
      7 C          62.7300   84.5742   12.9077 C.2     1  UNL1        0.2254
      8 O          61.8981   84.8263   14.1300 O.2     1  UNL1       -0.2748
      9 N          63.6659   85.6335   12.4057 N.am    1  UNL1       -0.3056
     10 H          64.2119   85.4680   11.6034 H       1  UNL1        0.1494
     11 N          62.6078   80.3187   12.7643 N.3     1  UNL1       -0.2726
     12 C          62.4819   80.8068   11.3515 C.3     1  UNL1        0.0729
     13 C          62.4911   82.2788   11.0630 C.3     1  UNL1        0.0301
     14 C          62.6262   83.2626   12.1872 C.3     1  UNL1        0.0902
     15 C          62.7520   82.7744   13.5999 C.3     1  UNL1        0.0301
     16 C          62.7429   81.3025   13.8884 C.3     1  UNL1        0.0729
     17 C          62.5363   84.2063   11.0246 C.ar    1  UNL1       -0.0145
     18 C          61.5097   85.2998   11.0239 C.ar    1  UNL1       -0.0038
     19 C          61.4199   86.2435    9.8614 C.ar    1  UNL1       -0.0003
     20 C          62.3567   86.0935    8.6996 C.ar    1  UNL1       -0.0000
     21 C          63.3834   84.9999    8.7002 C.ar    1  UNL1       -0.0003
     22 C          63.4732   84.0562    9.8628 C.ar    1  UNL1       -0.0038
     23 C          62.6340   77.8607   11.9230 C.3     1  UNL1        0.0188
     24 C          62.5986   78.8467   13.0528 C.3     1  UNL1        0.0721
     25 C          64.0814   90.8797   15.2876 C.3     1  UNL1        0.0992
     26 C          65.2800   91.7570   15.0791 C.ar    1  UNL1       -0.0031
     27 C          65.8888   92.4840   16.2415 C.ar    1  UNL1       -0.0027
     28 C          67.0875   93.3613   16.0329 C.ar    1  UNL1        0.0029
     29 C          67.6775   93.5117   14.6620 C.ar    1  UNL1        0.0375
     30 C          67.0687   92.7847   13.4997 C.ar    1  UNL1        0.1451
     31 C          65.8700   91.9074   13.7082 C.ar    1  UNL1        0.0346
     32 O          67.6587   92.9352   12.1288 O.3     1  UNL1       -0.4527
     33 C          67.1197   93.9734   11.1900 C.ar    1  UNL1        0.1557
     34 C          66.2224   95.0586   11.7071 C.ar    1  UNL1        0.0384
     35 C          65.6833   96.0969   10.7682 C.ar    1  UNL1        0.0032
     36 C          66.0415   96.0501    9.3125 C.ar    1  UNL1        0.0011
     37 C          66.9388   94.9649    8.7954 C.ar    1  UNL1        0.0145
     38 C          67.4778   93.9266    9.7342 C.ar    1  UNL1        0.0921
     39 CL         68.3751   92.8415    9.2171 Cl      1  UNL1       -0.0791
@<TRIPOS>BOND
     1    23    24    1
     2    24    11    1
     3    11    12    1
     4    12    13    1
     5    13    14    1
     6    14     7    1
     7     7     8    2
     8     7     9   am
     9     9     1    1
    10     1     2    1
    11     2     3    1
    12     3     4    1
    13     4    25    1
    14    25    26    1
    15    26    27   ar
    16    27    28   ar
    17    28    29   ar
    18    29    30   ar
    19    30    32    1
    20    32    33    1
    21    33    34   ar
    22    34    35   ar
    23    35    36   ar
    24    36    37   ar
    25    37    38   ar
    26    38    39    1
    27    30    31   ar
    28     4     5    1
    29     5     6    1
    30    14    17    1
    31    17    18   ar
    32    18    19   ar
    33    19    20   ar
    34    20    21   ar
    35    21    22   ar
    36    14    15    1
    37    15    16    1
    38    16    11    1
    39     6     1    1
    40    22    17   ar
    41    31    26   ar
    42    38    33   ar
    43     9    10    1
@<TRIPOS>MOLECULE
*****
 39 43 0 0 0
SMALL
GASTEIGER

@<TRIPOS>ATOM
      1 C          62.5798   86.4078   11.8931 C.3     1  UNL1        0.0743
      2 C          62.0400   87.0169   10.6330 C.3     1  UNL1        0.0369
      3 C          62.2636   88.4725   10.3480 C.3     1  UNL1        0.0741
      4 N          63.0268   89.3190   11.3232 N.3     1  UNL1       -0.2688
      5 C          63.5666   88.7100   12.5832 C.3     1  UNL1        0.0741
      6 C          63.3430   87.2543   12.8682 C.3     1  UNL1        0.0369
      7 C          63.3878   83.9415   11.7724 C.2     1  UNL1        0.2254
      8 O          64.6428   84.3865   11.0819 O.2     1  UNL1       -0.2748
      9 N          62.3562   84.9522   12.1780 N.am    1  UNL1       -0.3056
     10 H          61.5325   84.6601   12.6313 H       1  UNL1        0.1494
     11 N          62.8648   79.8790   10.6033 N.3     1  UNL1       -0.2726
     12 C          62.7930   79.9148   12.1011 C.3     1  UNL1        0.0729
     13 C          62.9428   81.2183   12.8281 C.3     1  UNL1        0.0301
     14 C          63.1642   82.4859   12.0574 C.3     1  UNL1        0.0902
     15 C          63.2360   82.4500   10.5596 C.3     1  UNL1        0.0301
     16 C          63.0863   81.1466    9.8325 C.3     1  UNL1        0.0729
     17 C          63.1701   83.0273   13.4563 C.ar    1  UNL1       -0.0145
     18 C          61.9778   82.8251   14.3437 C.ar    1  UNL1       -0.0038
     19 C          61.9836   83.3665   15.7426 C.ar    1  UNL1       -0.0003
     20 C          63.1817   84.1100   16.2540 C.ar    1  UNL1       -0.0000
     21 C          64.3741   84.3122   15.3666 C.ar    1  UNL1       -0.0003
     22 C          64.3682   83.7708   13.9677 C.ar    1  UNL1       -0.0038
     23 C          62.9314   77.2818   10.6037 C.3     1  UNL1        0.0188
     24 C          62.7151   78.5755    9.8762 C.3     1  UNL1        0.0721
     25 C          63.2504   90.7747   11.0382 C.3     1  UNL1        0.0992
     26 C          64.2613   91.5477   11.8322 C.ar    1  UNL1       -0.0031
     27 C          64.3194   91.3955   13.3234 C.ar    1  UNL1       -0.0027
     28 C          65.3304   92.1686   14.1173 C.ar    1  UNL1        0.0029
     29 C          66.2832   93.0938   13.4202 C.ar    1  UNL1        0.0375
     30 C          66.2251   93.2460   11.9290 C.ar    1  UNL1        0.1451
     31 C          65.2141   92.4730   11.1350 C.ar    1  UNL1        0.0346
     32 O          67.1779   94.1712   11.2319 O.3     1  UNL1       -0.4527
     33 C          66.7197   94.9641   10.0440 C.ar    1  UNL1        0.1557
     34 C          65.7122   96.0618   10.2183 C.ar    1  UNL1        0.0384
     35 C          65.2539   96.8547    9.0303 C.ar    1  UNL1        0.0032
     36 C          65.8031   96.5501    7.6682 C.ar    1  UNL1        0.0011
     37 C          66.8105   95.4525    7.4938 C.ar    1  UNL1        0.0145
     38 C          67.2688   94.6596    8.6818 C.ar    1  UNL1        0.0921
     39 CL         68.2762   93.5620    8.5074 Cl      1  UNL1       -0.0791
@<TRIPOS>BOND
     1    23    24    1
     2    24    11    1
     3    11    12    1
     4    12    13    1
     5    13    14    1
     6    14     7    1
     7     7     8    2
     8     7     9   am
     9     9     1    1
    10     1     2    1
    11     2     3    1
    12     3     4    1
    13     4    25    1
    14    25    26    1
    15    26    27   ar
    16    27    28   ar
    17    28    29   ar
    18    29    30   ar
    19    30    32    1
    20    32    33    1
    21    33    34   ar
    22    34    35   ar
    23    35    36   ar
    24    36    37   ar
    25    37    38   ar
    26    38    39    1
    27    30    31   ar
    28     4     5    1
    29     5     6    1
    30    14    17    1
    31    17    18   ar
    32    18    19   ar
    33    19    20   ar
    34    20    21   ar
    35    21    22   ar
    36    14    15    1
    37    15    16    1
    38    16    11    1
    39     6     1    1
    40    22    17   ar
    41    31    26   ar
    42    38    33   ar
    43     9    10    1
@<TRIPOS>MOLECULE
*****
 39 43 0 0 0
SMALL
GASTEIGER

@<TRIPOS>ATOM
      1 C          62.1974   85.9166   11.2380 C.3     1  UNL1        0.0743
      2 C          61.7374   86.3556    9.8795 C.3     1  UNL1        0.0369
      3 C          61.8697   87.7928    9.4710 C.3     1  UNL1        0.0741
      4 N          62.4620   88.7910   10.4211 N.3     1  UNL1       -0.2688
      5 C          62.9221   88.3521   11.7796 C.3     1  UNL1        0.0741
      6 C          62.7898   86.9148   12.1881 C.3     1  UNL1        0.0369
      7 C          63.2153   83.5360   11.4540 C.2     1  UNL1        0.2254
      8 O          64.4978   84.0299   10.8529 O.2     1  UNL1       -0.2748
      9 N          62.0651   84.4794   11.6466 N.am    1  UNL1       -0.3056
     10 H          61.2234   84.1553   12.0411 H       1  UNL1        0.1494
     11 N          62.8148   79.3755   10.6330 N.3     1  UNL1       -0.2726
     12 C          62.8420   79.5253   12.1252 C.3     1  UNL1        0.0729
     13 C          62.9761   80.8869   12.7399 C.3     1  UNL1        0.0301
     14 C          63.0830   82.0988   11.8625 C.3     1  UNL1        0.0902
     15 C          63.0558   81.9490   10.3703 C.3     1  UNL1        0.0301
     16 C          62.9217   80.5873    9.7555 C.3     1  UNL1        0.0729
     17 C          63.1561   82.7477   13.2129 C.ar    1  UNL1       -0.0145
     18 C          64.3983   83.4794   13.6271 C.ar    1  UNL1       -0.0038
     19 C          64.4715   84.1284   14.9774 C.ar    1  UNL1       -0.0003
     20 C          63.3024   84.0456   15.9136 C.ar    1  UNL1       -0.0000
     21 C          62.0602   83.3139   15.4995 C.ar    1  UNL1       -0.0003
     22 C          61.9870   82.6650   14.1490 C.ar    1  UNL1       -0.0038
     23 C          63.1526   76.8030   10.7672 C.3     1  UNL1        0.0188
     24 C          62.6807   78.0138   10.0182 C.3     1  UNL1        0.0721
     25 C          62.5944   90.2283   10.0125 C.3     1  UNL1        0.0992
     26 C          63.5762   91.1198   10.7134 C.ar    1  UNL1       -0.0031
     27 C          64.1995   92.2711    9.9811 C.ar    1  UNL1       -0.0027
     28 C          65.1813   93.1626   10.6820 C.ar    1  UNL1        0.0029
     29 C          65.5399   92.9030   12.1151 C.ar    1  UNL1        0.0375
     30 C          64.9166   91.7517   12.8474 C.ar    1  UNL1        0.1451
     31 C          63.9347   90.8601   12.1466 C.ar    1  UNL1        0.0346
     32 O          65.2752   91.4920   14.2806 O.3     1  UNL1       -0.4527
     33 C          64.6052   90.3799   15.0318 C.ar    1  UNL1        0.1557
     34 C          64.7468   88.9635   14.5586 C.ar    1  UNL1        0.0384
     35 C          64.0769   87.8514   15.3099 C.ar    1  UNL1        0.0032
     36 C          63.2654   88.1555   16.5341 C.ar    1  UNL1        0.0011
     37 C          63.1238   89.5719   17.0073 C.ar    1  UNL1        0.0145
     38 C          63.7938   90.6841   16.2561 C.ar    1  UNL1        0.0921
     39 CL         63.6522   92.1005   16.7293 Cl      1  UNL1       -0.0791
@<TRIPOS>BOND
     1    23    24    1
     2    24    11    1
     3    11    12    1
     4    12    13    1
     5    13    14    1
     6    14     7    1
     7     7     8    2
     8     7     9   am
     9     9     1    1
    10     1     2    1
    11     2     3    1
    12     3     4    1
    13     4    25    1
    14    25    26    1
    15    26    27   ar
    16    27    28   ar
    17    28    29   ar
    18    29    30   ar
    19    30    32    1
    20    32    33    1
    21    33    34   ar
    22    34    35   ar
    23    35    36   ar
    24    36    37   ar
    25    37    38   ar
    26    38    39    1
    27    30    31   ar
    28     4     5    1
    29     5     6    1
    30    14    17    1
    31    17    18   ar
    32    18    19   ar
    33    19    20   ar
    34    20    21   ar
    35    21    22   ar
    36    14    15    1
    37    15    16    1
    38    16    11    1
    39     6     1    1
    40    22    17   ar
    41    31    26   ar
    42    38    33   ar
    43     9    10    1
@<TRIPOS>MOLECULE
*****
 39 43 0 0 0
SMALL
GASTEIGER

@<TRIPOS>ATOM
      1 C          61.2755   87.1195    9.0935 C.3     1  UNL1        0.0743
      2 C          60.4968   86.4202    8.0190 C.3     1  UNL1        0.0369
      3 C          59.5741   87.2022    7.1317 C.3     1  UNL1        0.0741
      4 N          59.4302   88.6835    7.3191 N.3     1  UNL1       -0.2688
      5 C          60.2088   89.3828    8.3936 C.3     1  UNL1        0.0741
      6 C          61.1315   88.6008    9.2809 C.3     1  UNL1        0.0369
      7 C          61.9900   86.3387   11.4662 C.2     1  UNL1        0.2254
      8 O          60.8592   87.1218   12.0644 O.2     1  UNL1       -0.2748
      9 N          62.1982   86.3376    9.9807 N.am    1  UNL1       -0.3056
     10 H          62.9404   85.8236    9.5881 H       1  UNL1        0.1494
     11 N          63.6528   82.7143   12.9640 N.3     1  UNL1       -0.2726
     12 C          64.3290   83.8382   13.6917 C.3     1  UNL1        0.0729
     13 C          63.9590   85.2594   13.3864 C.3     1  UNL1        0.0301
     14 C          62.9127   85.5568   12.3535 C.3     1  UNL1        0.0902
     15 C          62.2365   84.4328   11.6258 C.3     1  UNL1        0.0301
     16 C          62.6065   83.0116   11.9311 C.3     1  UNL1        0.0729
     17 C          63.2685   86.9523   12.7730 C.ar    1  UNL1       -0.0145
     18 C          63.9277   87.1918   14.0989 C.ar    1  UNL1       -0.0038
     19 C          64.2835   88.5872   14.5185 C.ar    1  UNL1       -0.0003
     20 C          63.9801   89.7432   13.6120 C.ar    1  UNL1       -0.0000
     21 C          63.3209   89.5038   12.2861 C.ar    1  UNL1       -0.0003
     22 C          62.9651   88.1083   11.8666 C.ar    1  UNL1       -0.0038
     23 C          62.9494   80.2616   13.4533 C.3     1  UNL1        0.0188
     24 C          64.0228   81.2931   13.2693 C.3     1  UNL1        0.0721
     25 C          58.5074   89.4654    6.4318 C.3     1  UNL1        0.0992
     26 C          59.0525   90.5568    5.5590 C.ar    1  UNL1       -0.0031
     27 C          58.2091   91.7566    5.2435 C.ar    1  UNL1       -0.0027
     28 C          58.7542   92.8479    4.3707 C.ar    1  UNL1        0.0029
     29 C          60.1425   92.7397    3.8133 C.ar    1  UNL1        0.0375
     30 C          60.9859   91.5399    4.1288 C.ar    1  UNL1        0.1451
     31 C          60.4409   90.4485    5.0016 C.ar    1  UNL1        0.0346
     32 O          62.3742   91.4317    3.5714 O.3     1  UNL1       -0.4527
     33 C          62.8415   92.4029    2.5282 C.ar    1  UNL1        0.1557
     34 C          63.9232   93.3899    2.8534 C.ar    1  UNL1        0.0384
     35 C          64.3905   94.3612    1.8101 C.ar    1  UNL1        0.0032
     36 C          63.7763   94.3453    0.4418 C.ar    1  UNL1        0.0011
     37 C          62.6946   93.3583    0.1166 C.ar    1  UNL1        0.0145
     38 C          62.2273   92.3871    1.1599 C.ar    1  UNL1        0.0921
     39 CL         61.1456   91.4000    0.8347 Cl      1  UNL1       -0.0791
@<TRIPOS>BOND
     1    23    24    1
     2    24    11    1
     3    11    12    1
     4    12    13    1
     5    13    14    1
     6    14     7    1
     7     7     8    2
     8     7     9   am
     9     9     1    1
    10     1     2    1
    11     2     3    1
    12     3     4    1
    13     4    25    1
    14    25    26    1
    15    26    27   ar
    16    27    28   ar
    17    28    29   ar
    18    29    30   ar
    19    30    32    1
    20    32    33    1
    21    33    34   ar
    22    34    35   ar
    23    35    36   ar
    24    36    37   ar
    25    37    38   ar
    26    38    39    1
    27    30    31   ar
    28     4     5    1
    29     5     6    1
    30    14    17    1
    31    17    18   ar
    32    18    19   ar
    33    19    20   ar
    34    20    21   ar
    35    21    22   ar
    36    14    15    1
    37    15    16    1
    38    16    11    1
    39     6     1    1
    40    22    17   ar
    41    31    26   ar
    42    38    33   ar
    43     9    10    1
@<TRIPOS>MOLECULE
*****
 39 43 0 0 0
SMALL
GASTEIGER

@<TRIPOS>ATOM
      1 C          62.7142   86.9830   12.1168 C.3     1  UNL1        0.0743
      2 C          62.1742   87.2765   10.7485 C.3     1  UNL1        0.0369
      3 C          62.3270   88.6478   10.1602 C.3     1  UNL1        0.0741
      4 N          63.0199   89.7256   10.9402 N.3     1  UNL1       -0.2688
      5 C          63.5599   89.4321   12.3085 C.3     1  UNL1        0.0741
      6 C          63.4070   88.0607   12.8968 C.3     1  UNL1        0.0369
      7 C          63.3096   84.4541   12.1136 C.2     1  UNL1        0.2254
      8 O          64.2107   84.6678   10.9337 O.2     1  UNL1       -0.2748
      9 N          62.5613   85.6116   12.7052 N.am    1  UNL1       -0.3056
     10 H          61.9699   85.4714   13.4796 H       1  UNL1        0.1494
     11 N          62.7883   80.2359   11.8301 N.3     1  UNL1       -0.2726
     12 C          62.8646   80.5691   13.2906 C.3     1  UNL1        0.0729
     13 C          63.0489   81.9925   13.7265 C.3     1  UNL1        0.0301
     14 C          63.1568   83.0827   12.7019 C.3     1  UNL1        0.0902
     15 C          63.0804   82.7495   11.2414 C.3     1  UNL1        0.0301
     16 C          62.8962   81.3261   10.8055 C.3     1  UNL1        0.0729
     17 C          63.2862   83.8922   13.9581 C.ar    1  UNL1       -0.0145
     18 C          64.5610   84.6273   14.2487 C.ar    1  UNL1       -0.0038
     19 C          64.6905   85.4367   15.5048 C.ar    1  UNL1       -0.0003
     20 C          63.5451   85.5111   16.4705 C.ar    1  UNL1       -0.0000
     21 C          62.2702   84.7760   16.1800 C.ar    1  UNL1       -0.0003
     22 C          62.1408   83.9665   14.9238 C.ar    1  UNL1       -0.0038
     23 C          62.7818   78.4409    9.9519 C.3     1  UNL1        0.0188
     24 C          62.6040   78.8126   11.3942 C.3     1  UNL1        0.0721
     25 C          63.1727   91.0969   10.3518 C.3     1  UNL1        0.0992
     26 C          64.3430   91.9523   10.7376 C.ar    1  UNL1       -0.0031
     27 C          65.3697   92.3265    9.7100 C.ar    1  UNL1       -0.0027
     28 C          66.5399   93.1819   10.0958 C.ar    1  UNL1        0.0029
     29 C          66.6835   93.6632   11.5092 C.ar    1  UNL1        0.0375
     30 C          65.6567   93.2890   12.5368 C.ar    1  UNL1        0.1451
     31 C          64.4865   92.4336   12.1511 C.ar    1  UNL1        0.0346
     32 O          65.8003   93.7703   13.9502 O.3     1  UNL1       -0.4527
     33 C          66.9774   93.3387   14.7737 C.ar    1  UNL1        0.1557
     34 C          67.9969   94.3482   15.2116 C.ar    1  UNL1        0.0384
     35 C          69.1741   93.9165   16.0351 C.ar    1  UNL1        0.0032
     36 C          69.3317   92.4756   16.4206 C.ar    1  UNL1        0.0011
     37 C          68.3122   91.4661   15.9827 C.ar    1  UNL1        0.0145
     38 C          67.1351   91.8978   15.1593 C.ar    1  UNL1        0.0921
     39 CL         66.1157   90.8883   14.7214 Cl      1  UNL1       -0.0791
@<TRIPOS>BOND
     1    23    24    1
     2    24    11    1
     3    11    12    1
     4    12    13    1
     5    13    14    1
     6    14     7    1
     7     7     8    2
     8     7     9   am
     9     9     1    1
    10     1     2    1
    11     2     3    1
    12     3     4    1
    13     4    25    1
    14    25    26    1
    15    26    27   ar
    16    27    28   ar
    17    28    29   ar
    18    29    30   ar
    19    30    32    1
    20    32    33    1
    21    33    34   ar
    22    34    35   ar
    23    35    36   ar
    24    36    37   ar
    25    37    38   ar
    26    38    39    1
    27    30    31   ar
    28     4     5    1
    29     5     6    1
    30    14    17    1
    31    17    18   ar
    32    18    19   ar
    33    19    20   ar
    34    20    21   ar
    35    21    22   ar
    36    14    15    1
    37    15    16    1
    38    16    11    1
    39     6     1    1
    40    22    17   ar
    41    31    26   ar
    42    38    33   ar
    43     9    10    1
@<TRIPOS>MOLECULE
*****
 39 43 0 0 0
SMALL
GASTEIGER

@<TRIPOS>ATOM
      1 C          63.2834   90.1741   11.1649 C.3     1  UNL1        0.0743
      2 C          63.3981   89.2242   12.3201 C.3     1  UNL1        0.0369
      3 C          62.8443   87.8348   12.2065 C.3     1  UNL1        0.0741
      4 N          62.1757   87.3955   10.9376 N.3     1  UNL1       -0.2688
      5 C          62.0610   88.3454    9.7824 C.3     1  UNL1        0.0741
      6 C          62.6149   89.7348    9.8961 C.3     1  UNL1        0.0369
      7 C          65.0738   91.8139   12.0899 C.2     1  UNL1        0.2254
      8 O          65.7565   90.6750   12.7875 O.2     1  UNL1       -0.2748
      9 N          63.8373   91.5635   11.2786 N.am    1  UNL1       -0.3056
     10 H          63.3892   92.3111   10.8207 H       1  UNL1        0.1494
     11 N          66.3659   95.5325   10.4630 N.3     1  UNL1       -0.2726
     12 C          66.5467   95.6201   11.9494 C.3     1  UNL1        0.0729
     13 C          66.1775   94.4555   12.8197 C.3     1  UNL1        0.0301
     14 C          65.6277   93.2033   12.2035 C.3     1  UNL1        0.0902
     15 C          65.4470   93.1157   10.7171 C.3     1  UNL1        0.0301
     16 C          65.8161   94.2804    9.8468 C.3     1  UNL1        0.0729
     17 C          65.6161   92.8083   13.6506 C.ar    1  UNL1       -0.0145
     18 C          66.7616   93.1886   14.5411 C.ar    1  UNL1       -0.0038
     19 C          66.7501   92.7937   15.9881 C.ar    1  UNL1       -0.0003
     20 C          65.5928   92.0184   16.5446 C.ar    1  UNL1       -0.0000
     21 C          64.4472   91.6381   15.6542 C.ar    1  UNL1       -0.0003
     22 C          64.4588   92.0331   14.2071 C.ar    1  UNL1       -0.0038
     23 C          67.2663   96.4614    8.2098 C.3     1  UNL1        0.0188
     24 C          66.7351   96.6972    9.5927 C.3     1  UNL1        0.0721
     25 C          61.6218   86.0061   10.8240 C.3     1  UNL1        0.0992
     26 C          62.3059   84.8668   11.5197 C.ar    1  UNL1       -0.0031
     27 C          62.6531   83.6223   10.7575 C.ar    1  UNL1       -0.0027
     28 C          63.3372   82.4831   11.4533 C.ar    1  UNL1        0.0029
     29 C          63.6740   82.5881   12.9112 C.ar    1  UNL1        0.0375
     30 C          63.3268   83.8326   13.6734 C.ar    1  UNL1        0.1451
     31 C          62.6428   84.9719   12.9776 C.ar    1  UNL1        0.0346
     32 O          63.6637   83.9377   15.1312 O.3     1  UNL1       -0.4527
     33 C          63.3916   85.2122   15.8740 C.ar    1  UNL1        0.1557
     34 C          62.3260   85.2525   16.9289 C.ar    1  UNL1        0.0384
     35 C          62.0539   86.5270   17.6717 C.ar    1  UNL1        0.0032
     36 C          62.8474   87.7610   17.3596 C.ar    1  UNL1        0.0011
     37 C          63.9130   87.7207   16.3047 C.ar    1  UNL1        0.0145
     38 C          64.1851   86.4462   15.5619 C.ar    1  UNL1        0.0921
     39 CL         65.2507   86.4059   14.5070 Cl      1  UNL1       -0.0791
@<TRIPOS>BOND
     1    23    24    1
     2    24    11    1
     3    11    12    1
     4    12    13    1
     5    13    14    1
     6    14     7    1
     7     7     8    2
     8     7     9   am
     9     9     1    1
    10     1     2    1
    11     2     3    1
    12     3     4    1
    13     4    25    1
    14    25    26    1
    15    26    27   ar
    16    27    28   ar
    17    28    29   ar
    18    29    30   ar
    19    30    32    1
    20    32    33    1
    21    33    34   ar
    22    34    35   ar
    23    35    36   ar
    24    36    37   ar
    25    37    38   ar
    26    38    39    1
    27    30    31   ar
    28     4     5    1
    29     5     6    1
    30    14    17    1
    31    17    18   ar
    32    18    19   ar
    33    19    20   ar
    34    20    21   ar
    35    21    22   ar
    36    14    15    1
    37    15    16    1
    38    16    11    1
    39     6     1    1
    40    22    17   ar
    41    31    26   ar
    42    38    33   ar
    43     9    10    1
@<TRIPOS>MOLECULE
*****
 39 43 0 0 0
SMALL
GASTEIGER

@<TRIPOS>ATOM
      1 C          57.7259   93.6863   -1.0390 C.3     1  UNL1        0.0743
      2 C          58.3013   94.6900   -0.0842 C.3     1  UNL1        0.0369
      3 C          59.5431   94.3619    0.6906 C.3     1  UNL1        0.0741
      4 N          60.2094   93.0301    0.5106 N.3     1  UNL1       -0.2688
      5 C          59.6341   92.0265   -0.4442 C.3     1  UNL1        0.0741
      6 C          58.3923   92.3546   -1.2190 C.3     1  UNL1        0.0369
      7 C          56.5036   95.1181   -2.8295 C.2     1  UNL1        0.2254
      8 O          57.7647   95.8936   -3.0703 O.2     1  UNL1       -0.2748
      9 N          56.4841   94.0144   -1.8139 N.am    1  UNL1       -0.3056
     10 H          55.6564   93.5054   -1.6558 H       1  UNL1        0.1494
     11 N          52.4394   96.3538   -3.1458 N.3     1  UNL1       -0.2726
     12 C          52.9284   96.1005   -4.5410 C.3     1  UNL1        0.0729
     13 C          54.3396   95.6467   -4.7703 C.3     1  UNL1        0.0301
     14 C          55.2618   95.4462   -3.6044 C.3     1  UNL1        0.0902
     15 C          54.7727   95.6994   -2.2092 C.3     1  UNL1        0.0301
     16 C          53.3615   96.1532   -1.9799 C.3     1  UNL1        0.0729
     17 C          56.1821   95.0789   -4.7305 C.ar    1  UNL1       -0.0145
     18 C          56.7241   96.1461   -5.6346 C.ar    1  UNL1       -0.0038
     19 C          57.6444   95.7790   -6.7607 C.ar    1  UNL1       -0.0003
     20 C          58.0227   94.3446   -6.9828 C.ar    1  UNL1       -0.0000
     21 C          57.4807   93.2773   -6.0788 C.ar    1  UNL1       -0.0003
     22 C          56.5604   93.6445   -4.9526 C.ar    1  UNL1       -0.0038
     23 C          50.0605   96.8559   -4.0615 C.3     1  UNL1        0.0188
     24 C          51.0282   96.8076   -2.9165 C.3     1  UNL1        0.0721
     25 C          61.4512   92.7020    1.2855 C.3     1  UNL1        0.0992
     26 C          62.7469   93.3776    0.9469 C.ar    1  UNL1       -0.0031
     27 C          63.7830   93.5892    2.0108 C.ar    1  UNL1       -0.0027
     28 C          65.0787   94.2649    1.6721 C.ar    1  UNL1        0.0029
     29 C          65.3384   94.7289    0.2696 C.ar    1  UNL1        0.0375
     30 C          64.3024   94.5173   -0.7943 C.ar    1  UNL1        0.1451
     31 C          63.0066   93.8417   -0.4557 C.ar    1  UNL1        0.0346
     32 O          64.5621   94.9813   -2.1969 O.3     1  UNL1       -0.4527
     33 C          63.4197   95.1550   -3.1532 C.ar    1  UNL1        0.1557
     34 C          62.6538   96.4445   -3.1804 C.ar    1  UNL1        0.0384
     35 C          61.5113   96.6182   -4.1368 C.ar    1  UNL1        0.0032
     36 C          61.1348   95.5025   -5.0659 C.ar    1  UNL1        0.0011
     37 C          61.9006   94.2129   -5.0387 C.ar    1  UNL1        0.0145
     38 C          63.0430   94.0393   -4.0823 C.ar    1  UNL1        0.0921
     39 CL         63.8089   92.7498   -4.0552 Cl      1  UNL1       -0.0791
@<TRIPOS>BOND
     1    23    24    1
     2    24    11    1
     3    11    12    1
     4    12    13    1
     5    13    14    1
     6    14     7    1
     7     7     8    2
     8     7     9   am
     9     9     1    1
    10     1     2    1
    11     2     3    1
    12     3     4    1
    13     4    25    1
    14    25    26    1
    15    26    27   ar
    16    27    28   ar
    17    28    29   ar
    18    29    30   ar
    19    30    32    1
    20    32    33    1
    21    33    34   ar
    22    34    35   ar
    23    35    36   ar
    24    36    37   ar
    25    37    38   ar
    26    38    39    1
    27    30    31   ar
    28     4     5    1
    29     5     6    1
    30    14    17    1
    31    17    18   ar
    32    18    19   ar
    33    19    20   ar
    34    20    21   ar
    35    21    22   ar
    36    14    15    1
    37    15    16    1
    38    16    11    1
    39     6     1    1
    40    22    17   ar
    41    31    26   ar
    42    38    33   ar
    43     9    10    1
