@<TRIPOS>MOLECULE
*****
 36 39 0 0 0
SMALL
GASTEIGER

@<TRIPOS>ATOM
      1 C          64.0140   88.3747   14.1291 C.ar    1  UNL1       -0.0177
      2 C          63.2405   88.0943   12.8748 C.ar    1  UNL1       -0.0027
      3 C          62.9182   86.6799   12.4929 C.ar    1  UNL1        0.0142
      4 C          63.3694   85.5461   13.3651 C.ar    1  UNL1        0.0478
      5 C          64.1429   85.8265   14.6193 C.ar    1  UNL1        0.0142
      6 C          64.4652   87.2408   15.0013 C.ar    1  UNL1       -0.0027
      7 N          63.0471   84.1318   12.9831 N.pl3   1  UNL1       -0.3085
      8 C          62.4955   83.0761   13.8949 C.3     1  UNL1        0.0992
      9 C          62.3273   81.8167   13.0976 C.3     1  UNL1        0.1164
     10 C          62.7750   82.0940   11.6930 C.3     1  UNL1        0.0303
     11 C          63.2199   83.5249   11.6223 C.3     1  UNL1        0.0787
     12 C          61.8035   80.5096   13.6141 C.3     1  UNL1        0.3992
     13 F          61.2796   79.2024   14.1307 F       1  UNL1       -0.1700
     14 F          60.4913   81.1620   13.9343 F       1  UNL1       -0.1700
     15 F          63.1157   79.8572   13.2939 F       1  UNL1       -0.1700
     16 C          63.7452   84.2257   10.4045 C.3     1  UNL1        0.0614
     17 C          62.7971   84.9141    9.4679 C.2     1  UNL1        0.0520
     18 O          63.1194   85.0025    8.0056 O.co2   1  UNL1       -0.5491
     19 O          61.5268   85.5140    9.9936 O.co2   1  UNL1       -0.5491
     20 C          64.3362   89.7890   14.5110 C.3     1  UNL1        0.0523
     21 C          66.0098   92.6228   11.4421 C.ar    1  UNL1        0.0019
     22 C          64.7036   91.9300   11.1897 C.ar    1  UNL1       -0.0003
     23 C          64.1457   90.9853   12.2127 C.ar    1  UNL1       -0.0042
     24 C          64.8941   90.7335   13.4881 C.ar    1  UNL1       -0.0217
     25 C          66.2004   91.4264   13.7404 C.ar    1  UNL1       -0.0255
     26 C          66.9487   91.1747   15.0158 C.3     1  UNL1        0.0307
     27 C          66.7582   92.3710   12.7175 C.ar    1  UNL1       -0.0045
     28 C          66.3106   95.6832    8.9334 C.ar    1  UNL1        0.1389
     29 C          67.6834   95.4567    8.3732 C.ar    1  UNL1        0.0392
     30 C          68.4985   94.2855    8.8359 C.ar    1  UNL1        0.0327
     31 C          67.9406   93.3409    9.8589 C.ar    1  UNL1        0.1403
     32 F          68.7556   92.1697   10.3216 F       1  UNL1       -0.2042
     33 C          66.5678   93.5674   10.4191 C.ar    1  UNL1        0.0305
     34 C          65.7527   94.7386    9.9564 C.ar    1  UNL1        0.0391
     35 C          64.8975   96.8553    7.0951 C.3     1  UNL1        0.2525
     36 O          65.4956   96.8544    8.4707 O.3     1  UNL1       -0.4714
@<TRIPOS>UNITY_ATOM_ATTR
18 1
charge -1
@<TRIPOS>BOND
     1    35    36    1
     2    36    28    1
     3    28    29   ar
     4    29    30   ar
     5    30    31   ar
     6    31    32    1
     7    31    33   ar
     8    33    21    1
     9    21    22   ar
    10    22    23   ar
    11    23    24   ar
    12    24    20    1
    13    20     1    1
    14     1     2   ar
    15     2     3   ar
    16     3     4   ar
    17     4     7    1
    18     7     8    1
    19     8     9    1
    20     9    12    1
    21    12    13    1
    22    12    14    1
    23    12    15    1
    24     9    10    1
    25    10    11    1
    26    11    16    1
    27    16    17    1
    28    17    18   ar
    29    17    19   ar
    30     4     5   ar
    31     5     6   ar
    32    24    25   ar
    33    25    26    1
    34    25    27   ar
    35    33    34   ar
    36    34    28   ar
    37    27    21   ar
    38     6     1   ar
    39    11     7    1
@<TRIPOS>MOLECULE
*****
 36 39 0 0 0
SMALL
GASTEIGER

@<TRIPOS>ATOM
      1 C          64.2943   88.6121   14.3309 C.ar    1  UNL1       -0.0177
      2 C          64.6521   87.3709   15.0933 C.ar    1  UNL1       -0.0027
      3 C          64.2634   86.0242   14.5589 C.ar    1  UNL1        0.0142
      4 C          63.5168   85.9189   13.2622 C.ar    1  UNL1        0.0478
      5 C          63.1590   87.1601   12.4998 C.ar    1  UNL1        0.0142
      6 C          63.5476   88.5067   13.0341 C.ar    1  UNL1       -0.0027
      7 N          63.1281   84.5723   12.7279 N.pl3   1  UNL1       -0.3085
      8 C          62.9161   83.3291   13.5401 C.3     1  UNL1        0.0992
      9 C          62.5401   82.2208   12.6018 C.3     1  UNL1        0.1164
     10 C          62.5198   82.7790   11.2096 C.3     1  UNL1        0.0303
     11 C          62.8832   84.2323   11.2876 C.3     1  UNL1        0.0787
     12 C          62.2377   80.8033   12.9877 C.3     1  UNL1        0.3992
     13 F          61.9352   79.3858   13.3738 F       1  UNL1       -0.1700
     14 F          63.4820   80.3466   12.2856 F       1  UNL1       -0.1700
     15 F          60.9933   81.2601   13.6899 F       1  UNL1       -0.1700
     16 C          62.9839   85.1794   10.1287 C.3     1  UNL1        0.0614
     17 C          61.7520   85.8538    9.6020 C.2     1  UNL1        0.0520
     18 O          60.7663   86.4645   10.5536 O.co2   1  UNL1       -0.5491
     19 O          61.5057   85.9176    8.1238 O.co2   1  UNL1       -0.5491
     20 C          64.6830   89.9587   14.8652 C.3     1  UNL1        0.0523
     21 C          65.7948   93.2698   12.0278 C.ar    1  UNL1        0.0019
     22 C          64.5468   92.4707   11.7958 C.ar    1  UNL1       -0.0003
     23 C          64.1761   91.3670   12.7416 C.ar    1  UNL1       -0.0042
     24 C          65.0536   91.0624   13.9194 C.ar    1  UNL1       -0.0217
     25 C          66.3016   91.8615   14.1515 C.ar    1  UNL1       -0.0255
     26 C          67.1791   91.5569   15.3293 C.3     1  UNL1        0.0307
     27 C          66.6722   92.9652   13.2057 C.ar    1  UNL1       -0.0045
     28 C          66.6324   95.2031    8.6647 C.ar    1  UNL1        0.1389
     29 C          66.9067   96.5808    9.1905 C.ar    1  UNL1        0.0392
     30 C          66.8103   96.8549   10.6621 C.ar    1  UNL1        0.0327
     31 C          66.4397   95.7513   11.6079 C.ar    1  UNL1        0.1403
     32 F          66.3433   96.0254   13.0794 F       1  UNL1       -0.2042
     33 C          66.1654   94.3735   11.0820 C.ar    1  UNL1        0.0305
     34 C          66.2618   94.0994    9.6105 C.ar    1  UNL1        0.0391
     35 C          66.0474   95.8389    6.2145 C.3     1  UNL1        0.2525
     36 O          66.7288   94.9289    7.1931 O.3     1  UNL1       -0.4714
@<TRIPOS>UNITY_ATOM_ATTR
18 1
charge -1
@<TRIPOS>BOND
     1    35    36    1
     2    36    28    1
     3    28    29   ar
     4    29    30   ar
     5    30    31   ar
     6    31    32    1
     7    31    33   ar
     8    33    21    1
     9    21    22   ar
    10    22    23   ar
    11    23    24   ar
    12    24    20    1
    13    20     1    1
    14     1     2   ar
    15     2     3   ar
    16     3     4   ar
    17     4     7    1
    18     7     8    1
    19     8     9    1
    20     9    12    1
    21    12    13    1
    22    12    14    1
    23    12    15    1
    24     9    10    1
    25    10    11    1
    26    11    16    1
    27    16    17    1
    28    17    18   ar
    29    17    19   ar
    30     4     5   ar
    31     5     6   ar
    32    24    25   ar
    33    25    26    1
    34    25    27   ar
    35    33    34   ar
    36    34    28   ar
    37    27    21   ar
    38     6     1   ar
    39    11     7    1
@<TRIPOS>MOLECULE
*****
 36 39 0 0 0
SMALL
GASTEIGER

@<TRIPOS>ATOM
      1 C          59.4138   90.3858    5.8820 C.ar    1  UNL1       -0.0177
      2 C          60.8484   90.1718    5.4995 C.ar    1  UNL1       -0.0027
      3 C          61.4541   90.9701    4.3833 C.ar    1  UNL1        0.0142
      4 C          60.6253   91.9823    3.6496 C.ar    1  UNL1        0.0478
      5 C          59.1907   92.1963    4.0320 C.ar    1  UNL1        0.0142
      6 C          58.5850   91.3981    5.1482 C.ar    1  UNL1       -0.0027
      7 N          61.2310   92.7806    2.5334 N.pl3   1  UNL1       -0.3085
      8 C          62.6742   93.1706    2.4107 C.3     1  UNL1        0.0992
      9 C          62.8351   93.9601    1.1454 C.3     1  UNL1        0.1164
     10 C          61.4913   94.0579    0.4861 C.3     1  UNL1        0.0303
     11 C          60.4999   93.3289    1.3440 C.3     1  UNL1        0.0787
     12 C          64.1150   94.5483    0.6300 C.3     1  UNL1        0.3992
     13 F          65.3949   95.1366    0.1145 F       1  UNL1       -0.1700
     14 F          64.7576   93.1938    0.6799 F       1  UNL1       -0.1700
     15 F          63.4724   95.9028    0.5801 F       1  UNL1       -0.1700
     16 C          59.0347   93.1754    1.0618 C.3     1  UNL1        0.0614
     17 C          58.5158   93.3634   -0.3329 C.2     1  UNL1        0.0520
     18 O          57.5576   94.4779   -0.6327 O.co2   1  UNL1       -0.5491
     19 O          58.9550   92.4370   -1.4278 O.co2   1  UNL1       -0.5491
     20 C          58.8081   89.5875    6.9981 C.3     1  UNL1        0.0523
     21 C          61.2823   86.5206    9.1710 C.ar    1  UNL1        0.0019
     22 C          60.5094   86.1297    7.9464 C.ar    1  UNL1       -0.0003
     23 C          59.6846   87.1521    7.2220 C.ar    1  UNL1       -0.0042
     24 C          59.6328   88.5652    7.7224 C.ar    1  UNL1       -0.0217
     25 C          60.4058   88.9560    8.9471 C.ar    1  UNL1       -0.0255
     26 C          60.3540   90.3691    9.4475 C.3     1  UNL1        0.0307
     27 C          61.2305   87.9337    9.6714 C.ar    1  UNL1       -0.0045
     28 C          62.7853   84.3083   12.1031 C.ar    1  UNL1        0.1389
     29 C          63.7566   83.4537   11.3441 C.ar    1  UNL1        0.0392
     30 C          63.9032   83.6213    9.8608 C.ar    1  UNL1        0.0327
     31 C          63.0784   84.6436    9.1364 C.ar    1  UNL1        0.1403
     32 F          63.2250   84.8113    7.6530 F       1  UNL1       -0.2042
     33 C          62.1071   85.4982    9.8954 C.ar    1  UNL1        0.0305
     34 C          61.9605   85.3306   11.3788 C.ar    1  UNL1        0.0391
     35 C          62.3900   82.7799   14.1666 C.3     1  UNL1        0.2525
     36 O          62.6387   84.1406   13.5865 O.3     1  UNL1       -0.4714
@<TRIPOS>UNITY_ATOM_ATTR
18 1
charge -1
@<TRIPOS>BOND
     1    35    36    1
     2    36    28    1
     3    28    29   ar
     4    29    30   ar
     5    30    31   ar
     6    31    32    1
     7    31    33   ar
     8    33    21    1
     9    21    22   ar
    10    22    23   ar
    11    23    24   ar
    12    24    20    1
    13    20     1    1
    14     1     2   ar
    15     2     3   ar
    16     3     4   ar
    17     4     7    1
    18     7     8    1
    19     8     9    1
    20     9    12    1
    21    12    13    1
    22    12    14    1
    23    12    15    1
    24     9    10    1
    25    10    11    1
    26    11    16    1
    27    16    17    1
    28    17    18   ar
    29    17    19   ar
    30     4     5   ar
    31     5     6   ar
    32    24    25   ar
    33    25    26    1
    34    25    27   ar
    35    33    34   ar
    36    34    28   ar
    37    27    21   ar
    38     6     1   ar
    39    11     7    1
@<TRIPOS>MOLECULE
*****
 36 39 0 0 0
SMALL
GASTEIGER

@<TRIPOS>ATOM
      1 C          59.4103   88.9004    7.6484 C.ar    1  UNL1       -0.0177
      2 C          59.5369   87.4074    7.7192 C.ar    1  UNL1       -0.0027
      3 C          60.3736   86.7757    8.7920 C.ar    1  UNL1        0.0142
      4 C          61.0837   87.6370    9.7940 C.ar    1  UNL1        0.0478
      5 C          60.9572   89.1299    9.7232 C.ar    1  UNL1        0.0142
      6 C          60.1205   89.7616    8.6504 C.ar    1  UNL1       -0.0027
      7 N          61.9204   87.0052   10.8667 N.pl3   1  UNL1       -0.3085
      8 C          62.0651   85.5339   11.1203 C.3     1  UNL1        0.0992
      9 C          62.9935   85.3532   12.2845 C.3     1  UNL1        0.1164
     10 C          63.4226   86.7129   12.7506 C.3     1  UNL1        0.0303
     11 C          62.7594   87.7339   11.8743 C.3     1  UNL1        0.0787
     12 C          63.4182   84.0430   12.8784 C.3     1  UNL1        0.3992
     13 F          63.8429   82.7327   13.4724 F       1  UNL1       -0.1700
     14 F          64.4910   84.7440   13.6579 F       1  UNL1       -0.1700
     15 F          62.3453   83.3419   12.0990 F       1  UNL1       -0.1700
     16 C          62.9089   89.2222   11.9861 C.3     1  UNL1        0.0614
     17 C          63.3265   89.8384   13.2884 C.2     1  UNL1        0.0520
     18 O          62.4253   89.7479   14.4840 O.co2   1  UNL1       -0.5491
     19 O          64.6453   90.5450   13.3950 O.co2   1  UNL1       -0.5491
     20 C          58.5736   89.5321    6.5757 C.3     1  UNL1        0.0523
     21 C          60.4779   92.2766    3.5606 C.ar    1  UNL1        0.0019
     22 C          61.3274   91.3266    4.3516 C.ar    1  UNL1       -0.0003
     23 C          60.6926   90.4117    5.3567 C.ar    1  UNL1       -0.0042
     24 C          59.2084   90.4469    5.5707 C.ar    1  UNL1       -0.0217
     25 C          58.3589   91.3970    4.7795 C.ar    1  UNL1       -0.0255
     26 C          56.8747   91.4322    4.9934 C.3     1  UNL1        0.0307
     27 C          58.9937   92.3118    3.7745 C.ar    1  UNL1       -0.0045
     28 C          61.0977   95.4154    1.2124 C.ar    1  UNL1        0.1389
     29 C          62.3821   95.0213    0.5455 C.ar    1  UNL1        0.0392
     30 C          63.0318   93.7123    0.8835 C.ar    1  UNL1        0.0327
     31 C          62.3971   92.7974    1.8886 C.ar    1  UNL1        0.1403
     32 F          63.0469   91.4883    2.2266 F       1  UNL1       -0.2042
     33 C          61.1127   93.1915    2.5555 C.ar    1  UNL1        0.0305
     34 C          60.4630   94.5006    2.2174 C.ar    1  UNL1        0.0391
     35 C          59.3139   96.7677   -0.1064 C.3     1  UNL1        0.2525
     36 O          60.4480   96.7245    0.8743 O.3     1  UNL1       -0.4714
@<TRIPOS>UNITY_ATOM_ATTR
18 1
charge -1
@<TRIPOS>BOND
     1    35    36    1
     2    36    28    1
     3    28    29   ar
     4    29    30   ar
     5    30    31   ar
     6    31    32    1
     7    31    33   ar
     8    33    21    1
     9    21    22   ar
    10    22    23   ar
    11    23    24   ar
    12    24    20    1
    13    20     1    1
    14     1     2   ar
    15     2     3   ar
    16     3     4   ar
    17     4     7    1
    18     7     8    1
    19     8     9    1
    20     9    12    1
    21    12    13    1
    22    12    14    1
    23    12    15    1
    24     9    10    1
    25    10    11    1
    26    11    16    1
    27    16    17    1
    28    17    18   ar
    29    17    19   ar
    30     4     5   ar
    31     5     6   ar
    32    24    25   ar
    33    25    26    1
    34    25    27   ar
    35    33    34   ar
    36    34    28   ar
    37    27    21   ar
    38     6     1   ar
    39    11     7    1
@<TRIPOS>MOLECULE
*****
 36 39 0 0 0
SMALL
GASTEIGER

@<TRIPOS>ATOM
      1 C          64.2207   89.5149   14.9552 C.ar    1  UNL1       -0.0177
      2 C          63.3205   90.1736   13.9523 C.ar    1  UNL1       -0.0027
      3 C          63.8558   91.2536   13.0595 C.ar    1  UNL1        0.0142
      4 C          65.2912   91.6750   13.1697 C.ar    1  UNL1        0.0478
      5 C          66.1913   91.0163   14.1726 C.ar    1  UNL1        0.0142
      6 C          65.6561   89.9363   15.0654 C.ar    1  UNL1       -0.0027
      7 N          65.8264   92.7550   12.2769 N.pl3   1  UNL1       -0.3085
      8 C          65.8007   92.7526   10.7771 C.3     1  UNL1        0.0992
      9 C          66.4397   94.0232   10.3004 C.3     1  UNL1        0.1164
     10 C          66.8604   94.8110   11.5056 C.3     1  UNL1        0.0303
     11 C          66.4813   94.0272   12.7272 C.3     1  UNL1        0.0787
     12 C          66.6254   94.4338    8.8698 C.3     1  UNL1        0.3992
     13 F          66.8112   94.8446    7.4391 F       1  UNL1       -0.1700
     14 F          67.5621   93.2811    8.6605 F       1  UNL1       -0.1700
     15 F          65.6887   95.5866    9.0791 F       1  UNL1       -0.1700
     16 C          66.7160   94.4426   14.1493 C.3     1  UNL1        0.0614
     17 C          67.5914   93.6107   15.0389 C.2     1  UNL1        0.0520
     18 O          67.1621   93.3096   16.4443 O.co2   1  UNL1       -0.5491
     19 O          68.8961   93.0799   14.5232 O.co2   1  UNL1       -0.5491
     20 C          63.6854   88.4349   15.8480 C.3     1  UNL1        0.0523
     21 C          63.0858   84.2760   14.2374 C.ar    1  UNL1        0.0019
     22 C          63.5622   85.3705   13.3291 C.ar    1  UNL1       -0.0003
     23 C          63.7621   86.7569   13.8660 C.ar    1  UNL1       -0.0042
     24 C          63.4856   87.0486   15.3111 C.ar    1  UNL1       -0.0217
     25 C          63.0091   85.9540   16.2194 C.ar    1  UNL1       -0.0255
     26 C          62.7325   86.2458   17.6645 C.3     1  UNL1        0.0307
     27 C          62.8092   84.5677   15.6825 C.ar    1  UNL1       -0.0045
     28 C          61.5988   80.6329   13.7210 C.ar    1  UNL1        0.1389
     29 C          62.4860   80.1170   12.6270 C.ar    1  UNL1        0.0392
     30 C          63.5731   80.9875   12.0699 C.ar    1  UNL1        0.0327
     31 C          63.7731   82.3738   12.6066 C.ar    1  UNL1        0.1403
     32 F          64.8602   83.2443   12.0495 F       1  UNL1       -0.2042
     33 C          62.8859   82.8896   13.7006 C.ar    1  UNL1        0.0305
     34 C          61.7987   82.0192   14.2577 C.ar    1  UNL1        0.0391
     35 C          59.0986   80.2635   14.3230 C.3     1  UNL1        0.2525
     36 O          60.5116   79.7624   14.2781 O.3     1  UNL1       -0.4714
@<TRIPOS>UNITY_ATOM_ATTR
18 1
charge -1
@<TRIPOS>BOND
     1    35    36    1
     2    36    28    1
     3    28    29   ar
     4    29    30   ar
     5    30    31   ar
     6    31    32    1
     7    31    33   ar
     8    33    21    1
     9    21    22   ar
    10    22    23   ar
    11    23    24   ar
    12    24    20    1
    13    20     1    1
    14     1     2   ar
    15     2     3   ar
    16     3     4   ar
    17     4     7    1
    18     7     8    1
    19     8     9    1
    20     9    12    1
    21    12    13    1
    22    12    14    1
    23    12    15    1
    24     9    10    1
    25    10    11    1
    26    11    16    1
    27    16    17    1
    28    17    18   ar
    29    17    19   ar
    30     4     5   ar
    31     5     6   ar
    32    24    25   ar
    33    25    26    1
    34    25    27   ar
    35    33    34   ar
    36    34    28   ar
    37    27    21   ar
    38     6     1   ar
    39    11     7    1
@<TRIPOS>MOLECULE
*****
 36 39 0 0 0
SMALL
GASTEIGER

@<TRIPOS>ATOM
      1 C          59.5021   89.1297    7.5667 C.ar    1  UNL1       -0.0177
      2 C          59.6483   87.6369    7.5521 C.ar    1  UNL1       -0.0027
      3 C          60.4389   86.9502    8.6262 C.ar    1  UNL1        0.0142
      4 C          61.0831   87.7563    9.7148 C.ar    1  UNL1        0.0478
      5 C          60.9369   89.2491    9.7294 C.ar    1  UNL1        0.0142
      6 C          60.1464   89.9358    8.6554 C.ar    1  UNL1       -0.0027
      7 N          61.8736   87.0696   10.7888 N.pl3   1  UNL1       -0.3085
      8 C          61.9508   85.5890   11.0167 C.3     1  UNL1        0.0992
      9 C          62.8506   85.3472   12.1923 C.3     1  UNL1        0.1164
     10 C          63.3295   86.6784   12.6910 C.3     1  UNL1        0.0303
     11 C          62.7257   87.7429   11.8236 C.3     1  UNL1        0.0787
     12 C          63.2086   84.0092   12.7680 C.3     1  UNL1        0.3992
     13 F          63.5666   82.6712   13.3438 F       1  UNL1       -0.1700
     14 F          64.1350   84.6759   13.7413 F       1  UNL1       -0.1700
     15 F          62.2822   83.3425   11.7947 F       1  UNL1       -0.1700
     16 C          62.9369   89.2211   11.9660 C.3     1  UNL1        0.0614
     17 C          63.3367   89.7973   13.2919 C.2     1  UNL1        0.0520
     18 O          64.6958   90.4081   13.4651 O.co2   1  UNL1       -0.5491
     19 O          62.3776   89.7626   14.4446 O.co2   1  UNL1       -0.5491
     20 C          58.7116   89.8164    6.4927 C.3     1  UNL1        0.0523
     21 C          60.8286   92.1964    3.3141 C.ar    1  UNL1        0.0019
     22 C          61.5914   91.2042    4.1408 C.ar    1  UNL1       -0.0003
     23 C          60.8857   90.4108    5.2004 C.ar    1  UNL1       -0.0042
     24 C          59.4173   90.6097    5.4332 C.ar    1  UNL1       -0.0217
     25 C          58.6545   91.6020    4.6063 C.ar    1  UNL1       -0.0255
     26 C          57.1861   91.8010    4.8391 C.3     1  UNL1        0.0307
     27 C          59.3602   92.3954    3.5468 C.ar    1  UNL1       -0.0045
     28 C          63.5995   94.3554    1.4671 C.ar    1  UNL1        0.1389
     29 C          62.9456   94.5765    0.1354 C.ar    1  UNL1        0.0392
     30 C          61.5860   94.0043   -0.1367 C.ar    1  UNL1        0.0327
     31 C          60.8803   93.2109    0.9228 C.ar    1  UNL1        0.1403
     32 F          59.5208   92.6387    0.6506 F       1  UNL1       -0.2042
     33 C          61.5343   92.9898    2.2545 C.ar    1  UNL1        0.0305
     34 C          62.8939   93.5620    2.5266 C.ar    1  UNL1        0.0391
     35 C          65.0909   96.2460    2.4426 C.3     1  UNL1        0.2525
     36 O          64.9591   94.9276    1.7393 O.3     1  UNL1       -0.4714
@<TRIPOS>UNITY_ATOM_ATTR
18 1
charge -1
@<TRIPOS>BOND
     1    35    36    1
     2    36    28    1
     3    28    29   ar
     4    29    30   ar
     5    30    31   ar
     6    31    32    1
     7    31    33   ar
     8    33    21    1
     9    21    22   ar
    10    22    23   ar
    11    23    24   ar
    12    24    20    1
    13    20     1    1
    14     1     2   ar
    15     2     3   ar
    16     3     4   ar
    17     4     7    1
    18     7     8    1
    19     8     9    1
    20     9    12    1
    21    12    13    1
    22    12    14    1
    23    12    15    1
    24     9    10    1
    25    10    11    1
    26    11    16    1
    27    16    17    1
    28    17    18   ar
    29    17    19   ar
    30     4     5   ar
    31     5     6   ar
    32    24    25   ar
    33    25    26    1
    34    25    27   ar
    35    33    34   ar
    36    34    28   ar
    37    27    21   ar
    38     6     1   ar
    39    11     7    1
@<TRIPOS>MOLECULE
*****
 36 39 0 0 0
SMALL
GASTEIGER

@<TRIPOS>ATOM
      1 C          63.1685   89.7436   11.6727 C.ar    1  UNL1       -0.0177
      2 C          63.5991   89.5343   13.0943 C.ar    1  UNL1       -0.0027
      3 C          64.5954   90.4643   13.7208 C.ar    1  UNL1        0.0142
      4 C          65.1611   91.6036   12.9259 C.ar    1  UNL1        0.0478
      5 C          64.7305   91.8129   11.5043 C.ar    1  UNL1        0.0142
      6 C          63.7343   90.8829   10.8777 C.ar    1  UNL1       -0.0027
      7 N          66.1574   92.5335   13.5524 N.pl3   1  UNL1       -0.3085
      8 C          67.0481   92.2167   14.7171 C.3     1  UNL1        0.0992
      9 C          67.8791   93.4309   15.0089 C.3     1  UNL1        0.1164
     10 C          67.5020   94.4982   14.0245 C.3     1  UNL1        0.0303
     11 C          66.4379   93.9435   13.1244 C.3     1  UNL1        0.0787
     12 C          68.9067   93.5559   16.0943 C.3     1  UNL1        0.3992
     13 F          69.9344   93.6809   17.1798 F       1  UNL1       -0.1700
     14 F          69.0196   92.0616   16.1595 F       1  UNL1       -0.1700
     15 F          68.7938   95.0503   16.0291 F       1  UNL1       -0.1700
     16 C          65.7714   94.6711   11.9947 C.3     1  UNL1        0.0614
     17 C          66.5342   94.9621   10.7363 C.2     1  UNL1        0.0520
     18 O          66.1559   96.1377    9.8849 O.co2   1  UNL1       -0.5491
     19 O          67.6752   94.0776   10.3294 O.co2   1  UNL1       -0.5491
     20 C          62.1722   88.8137   11.0462 C.3     1  UNL1        0.0523
     21 C          62.4397   84.3863   11.8056 C.ar    1  UNL1        0.0019
     22 C          63.1208   85.3488   12.7328 C.ar    1  UNL1       -0.0003
     23 C          63.0316   86.8246   12.4797 C.ar    1  UNL1       -0.0042
     24 C          62.2614   87.3379   11.2993 C.ar    1  UNL1       -0.0217
     25 C          61.5803   86.3754   10.3721 C.ar    1  UNL1       -0.0255
     26 C          60.8101   86.8887    9.1917 C.3     1  UNL1        0.0307
     27 C          61.6695   84.8996   10.6252 C.ar    1  UNL1       -0.0045
     28 C          62.8901   80.4940   11.1755 C.ar    1  UNL1        0.1389
     29 C          62.7072   79.9589   12.5648 C.ar    1  UNL1        0.0392
     30 C          62.4352   80.8996   13.7010 C.ar    1  UNL1        0.0327
     31 C          62.3460   82.3754   13.4480 C.ar    1  UNL1        0.1403
     32 F          62.0740   83.3161   14.5842 F       1  UNL1       -0.2042
     33 C          62.5289   82.9105   12.0587 C.ar    1  UNL1        0.0305
     34 C          62.8009   81.9698   10.9224 C.ar    1  UNL1        0.0391
     35 C          62.7872   78.1058   10.1578 C.3     1  UNL1        0.2525
     36 O          63.1621   79.5533   10.0392 O.3     1  UNL1       -0.4714
@<TRIPOS>UNITY_ATOM_ATTR
18 1
charge -1
@<TRIPOS>BOND
     1    35    36    1
     2    36    28    1
     3    28    29   ar
     4    29    30   ar
     5    30    31   ar
     6    31    32    1
     7    31    33   ar
     8    33    21    1
     9    21    22   ar
    10    22    23   ar
    11    23    24   ar
    12    24    20    1
    13    20     1    1
    14     1     2   ar
    15     2     3   ar
    16     3     4   ar
    17     4     7    1
    18     7     8    1
    19     8     9    1
    20     9    12    1
    21    12    13    1
    22    12    14    1
    23    12    15    1
    24     9    10    1
    25    10    11    1
    26    11    16    1
    27    16    17    1
    28    17    18   ar
    29    17    19   ar
    30     4     5   ar
    31     5     6   ar
    32    24    25   ar
    33    25    26    1
    34    25    27   ar
    35    33    34   ar
    36    34    28   ar
    37    27    21   ar
    38     6     1   ar
    39    11     7    1
@<TRIPOS>MOLECULE
*****
 36 39 0 0 0
SMALL
GASTEIGER

@<TRIPOS>ATOM
      1 C          59.4675   88.9753    7.6464 C.ar    1  UNL1       -0.0177
      2 C          60.1012   89.9069    8.6365 C.ar    1  UNL1       -0.0027
      3 C          60.9586   89.3596    9.7390 C.ar    1  UNL1        0.0142
      4 C          61.1823   87.8807    9.8512 C.ar    1  UNL1        0.0478
      5 C          60.5487   86.9490    8.8610 C.ar    1  UNL1        0.0142
      6 C          59.6913   87.4963    7.7586 C.ar    1  UNL1       -0.0027
      7 N          62.0397   87.3334   10.9536 N.pl3   1  UNL1       -0.3085
      8 C          62.2267   85.8831   11.2879 C.3     1  UNL1        0.0992
      9 C          63.1632   85.7936   12.4562 C.3     1  UNL1        0.1164
     10 C          63.5551   87.1887   12.8440 C.3     1  UNL1        0.0303
     11 C          62.8607   88.1403   11.9154 C.3     1  UNL1        0.0787
     12 C          63.6265   84.5310   13.1201 C.3     1  UNL1        0.3992
     13 F          64.0899   83.2682   13.7840 F       1  UNL1       -0.1700
     14 F          63.9318   83.9368   11.7770 F       1  UNL1       -0.1700
     15 F          63.3213   85.1251   14.4632 F       1  UNL1       -0.1700
     16 C          62.9684   89.6362   11.9435 C.3     1  UNL1        0.0614
     17 C          63.1335   90.3517   13.2514 C.2     1  UNL1        0.0520
     18 O          63.9802   91.5875   13.3286 O.co2   1  UNL1       -0.5491
     19 O          62.4519   89.8315   14.4822 O.co2   1  UNL1       -0.5491
     20 C          58.6101   89.5225    6.5439 C.3     1  UNL1        0.0523
     21 C          60.3664   92.3608    3.5257 C.ar    1  UNL1        0.0019
     22 C          61.2618   91.4345    4.2939 C.ar    1  UNL1       -0.0003
     23 C          60.6764   90.4884    5.3000 C.ar    1  UNL1       -0.0042
     24 C          59.1956   90.4686    5.5379 C.ar    1  UNL1       -0.0217
     25 C          58.3001   91.3950    4.7697 C.ar    1  UNL1       -0.0255
     26 C          56.8192   91.3752    5.0076 C.3     1  UNL1        0.0307
     27 C          58.8855   92.3411    3.7637 C.ar    1  UNL1       -0.0045
     28 C          62.4325   93.7337    0.4279 C.ar    1  UNL1        0.1389
     29 C          62.1225   95.1991    0.5075 C.ar    1  UNL1        0.0392
     30 C          61.2272   95.7185    1.5931 C.ar    1  UNL1        0.0327
     31 C          60.6418   94.7724    2.5992 C.ar    1  UNL1        0.1403
     32 F          59.7465   95.2918    3.6849 F       1  UNL1       -0.2042
     33 C          60.9518   93.3070    2.5196 C.ar    1  UNL1        0.0305
     34 C          61.8471   92.7876    1.4340 C.ar    1  UNL1        0.0391
     35 C          64.1792   94.1645   -1.4464 C.3     1  UNL1        0.2525
     36 O          63.3278   93.2143   -0.6578 O.3     1  UNL1       -0.4714
@<TRIPOS>UNITY_ATOM_ATTR
18 1
charge -1
@<TRIPOS>BOND
     1    35    36    1
     2    36    28    1
     3    28    29   ar
     4    29    30   ar
     5    30    31   ar
     6    31    32    1
     7    31    33   ar
     8    33    21    1
     9    21    22   ar
    10    22    23   ar
    11    23    24   ar
    12    24    20    1
    13    20     1    1
    14     1     2   ar
    15     2     3   ar
    16     3     4   ar
    17     4     7    1
    18     7     8    1
    19     8     9    1
    20     9    12    1
    21    12    13    1
    22    12    14    1
    23    12    15    1
    24     9    10    1
    25    10    11    1
    26    11    16    1
    27    16    17    1
    28    17    18   ar
    29    17    19   ar
    30     4     5   ar
    31     5     6   ar
    32    24    25   ar
    33    25    26    1
    34    25    27   ar
    35    33    34   ar
    36    34    28   ar
    37    27    21   ar
    38     6     1   ar
    39    11     7    1
@<TRIPOS>MOLECULE
*****
 36 39 0 0 0
SMALL
GASTEIGER

@<TRIPOS>ATOM
      1 C          59.6224   89.0838    7.6440 C.ar    1  UNL1       -0.0177
      2 C          59.9007   87.6293    7.8824 C.ar    1  UNL1       -0.0027
      3 C          60.7476   87.2087    9.0469 C.ar    1  UNL1        0.0142
      4 C          61.3160   88.2427    9.9730 C.ar    1  UNL1        0.0478
      5 C          61.0377   89.6972    9.7347 C.ar    1  UNL1        0.0142
      6 C          60.1909   90.1178    8.5702 C.ar    1  UNL1       -0.0027
      7 N          62.1628   87.8221   11.1375 N.pl3   1  UNL1       -0.3085
      8 C          62.7871   88.7365   12.1496 C.3     1  UNL1        0.0992
      9 C          63.5441   87.8928   13.1320 C.3     1  UNL1        0.1164
     10 C          63.3877   86.4569   12.7271 C.3     1  UNL1        0.0303
     11 C          62.5340   86.4132   11.4944 C.3     1  UNL1        0.0787
     12 C          64.3211   88.3965   14.3120 C.3     1  UNL1        0.3992
     13 F          65.0981   88.9002   15.4920 F       1  UNL1       -0.1700
     14 F          63.8483   89.7914   14.0278 F       1  UNL1       -0.1700
     15 F          64.7938   87.0015   14.5961 F       1  UNL1       -0.1700
     16 C          62.1236   85.1776   10.7496 C.3     1  UNL1        0.0614
     17 C          63.0960   84.4972    9.8323 C.2     1  UNL1        0.0520
     18 O          64.0390   83.4633   10.3725 O.co2   1  UNL1       -0.5491
     19 O          63.1254   84.8506    8.3748 O.co2   1  UNL1       -0.5491
     20 C          58.7757   89.5044    6.4796 C.3     1  UNL1        0.0523
     21 C          60.4125   92.3802    3.4299 C.ar    1  UNL1        0.0019
     22 C          61.3391   91.4548    4.1611 C.ar    1  UNL1       -0.0003
     23 C          60.7935   90.4961    5.1777 C.ar    1  UNL1       -0.0042
     24 C          59.3213   90.4630    5.4630 C.ar    1  UNL1       -0.0217
     25 C          58.3946   91.3885    4.7317 C.ar    1  UNL1       -0.0255
     26 C          56.9223   91.3554    5.0169 C.3     1  UNL1        0.0307
     27 C          58.9402   92.3471    3.7151 C.ar    1  UNL1       -0.0045
     28 C          60.7605   95.5625    1.0842 C.ar    1  UNL1        0.1389
     29 C          62.0491   95.2561    0.3802 C.ar    1  UNL1        0.0392
     30 C          62.7922   93.9911    0.6927 C.ar    1  UNL1        0.0327
     31 C          62.2466   93.0325    1.7093 C.ar    1  UNL1        0.1403
     32 F          62.9897   91.7675    2.0218 F       1  UNL1       -0.2042
     33 C          60.9580   93.3389    2.4133 C.ar    1  UNL1        0.0305
     34 C          60.2150   94.6039    2.1007 C.ar    1  UNL1        0.0391
     35 C          59.0241   96.8557   -0.3520 C.3     1  UNL1        0.2525
     36 O          60.0174   96.8274    0.7716 O.3     1  UNL1       -0.4714
@<TRIPOS>UNITY_ATOM_ATTR
18 1
charge -1
@<TRIPOS>BOND
     1    35    36    1
     2    36    28    1
     3    28    29   ar
     4    29    30   ar
     5    30    31   ar
     6    31    32    1
     7    31    33   ar
     8    33    21    1
     9    21    22   ar
    10    22    23   ar
    11    23    24   ar
    12    24    20    1
    13    20     1    1
    14     1     2   ar
    15     2     3   ar
    16     3     4   ar
    17     4     7    1
    18     7     8    1
    19     8     9    1
    20     9    12    1
    21    12    13    1
    22    12    14    1
    23    12    15    1
    24     9    10    1
    25    10    11    1
    26    11    16    1
    27    16    17    1
    28    17    18   ar
    29    17    19   ar
    30     4     5   ar
    31     5     6   ar
    32    24    25   ar
    33    25    26    1
    34    25    27   ar
    35    33    34   ar
    36    34    28   ar
    37    27    21   ar
    38     6     1   ar
    39    11     7    1
