@<TRIPOS>MOLECULE
*****
 30 34 0 0 0
SMALL
GASTEIGER

@<TRIPOS>ATOM
      1 C          63.5031   86.3363   16.1917 C.3     1  UNL1        0.0199
      2 C          63.2397   87.7527   16.6094 C.3     1  UNL1        0.0054
      3 C          63.1194   89.2405   16.7573 C.3     1  UNL1        0.0436
      4 C          63.7484   89.8783   15.5542 C.3     1  UNL1        0.1659
      5 C          64.2575   88.7847   14.6627 C.3     1  UNL1        0.0436
      6 C          63.9431   87.4709   15.3149 C.3     1  UNL1        0.0054
      7 C          63.4010   84.8634   16.4568 C.3     1  UNL1        0.0896
      8 O          65.4085   84.4028   14.2755 O.2     1  UNL1       -0.2701
      9 C          64.0895   83.6892   14.2439 C.2     1  UNL1        0.2458
     10 N          63.0858   83.9195   15.3345 N.am    1  UNL1       -0.3009
     11 H          62.2202   83.4510   15.3138 H       1  UNL1        0.1497
     12 C          63.7743   82.7451   13.1216 C.ar    1  UNL1        0.0534
     13 C          64.1919   83.0798   11.7203 C.ar    1  UNL1        0.0054
     14 C          63.8766   82.1358   10.5981 C.ar    1  UNL1        0.0115
     15 C          63.1437   80.8571   10.8772 C.ar    1  UNL1        0.0577
     16 CL         62.8285   79.9131    9.7549 Cl      1  UNL1       -0.0822
     17 C          62.7261   80.5224   12.2784 C.ar    1  UNL1        0.0115
     18 C          63.0414   81.4664   13.4006 C.ar    1  UNL1        0.0054
     19 O          63.8505   91.3512   15.2891 O.3     1  UNL1       -0.4791
     20 C          65.1417   91.9375   14.8000 C.ar    1  UNL1        0.1414
     21 C          66.2069   92.3286   15.7809 C.ar    1  UNL1        0.0576
     22 C          67.4980   92.9149   15.2918 C.ar    1  UNL1        0.1019
     23 N          67.7238   93.1101   13.8218 N.ar    1  UNL1       -0.2436
     24 C          66.6586   92.7190   12.8409 C.ar    1  UNL1        0.0844
     25 C          66.8844   92.9143   11.3709 C.ar    1  UNL1        0.0215
     26 C          65.8192   92.5231   10.3900 C.ar    1  UNL1        0.0312
     27 C          64.5280   91.9368   10.8791 C.ar    1  UNL1        0.1403
     28 F          63.4627   91.5457    9.8982 F       1  UNL1       -0.2042
     29 C          64.3021   91.7416   12.3491 C.ar    1  UNL1        0.0342
     30 C          65.3675   92.1327   13.3300 C.ar    1  UNL1        0.0539
@<TRIPOS>BOND
     1     8     9    2
     2     9    10   am
     3    10     7    1
     4     1     7    1
     5     1     2    1
     6     2     3    1
     7     3     4    1
     8     4    19    1
     9    19    20    1
    10    20    21   ar
    11    21    22   ar
    12    22    23   ar
    13    23    24   ar
    14    24    25   ar
    15    25    26   ar
    16    26    27   ar
    17    27    28    1
    18    27    29   ar
    19    29    30   ar
    20     4     5    1
    21     6     5    1
    22     9    12    1
    23    12    13   ar
    24    13    14   ar
    25    14    15   ar
    26    15    16    1
    27    15    17   ar
    28    17    18   ar
    29     6     1    1
    30    18    12   ar
    31     6     2    1
    32    30    20   ar
    33    30    24   ar
    34    10    11    1
@<TRIPOS>MOLECULE
*****
 30 34 0 0 0
SMALL
GASTEIGER

@<TRIPOS>ATOM
      1 C          63.4552   86.3276   16.1045 C.3     1  UNL1        0.0199
      2 C          63.2363   87.7738   16.4367 C.3     1  UNL1        0.0054
      3 C          63.1940   89.2712   16.5148 C.3     1  UNL1        0.0436
      4 C          63.9929   89.8179   15.3690 C.3     1  UNL1        0.1659
      5 C          64.5289   88.6584   14.5827 C.3     1  UNL1        0.0436
      6 C          64.0613   87.3951   15.2426 C.3     1  UNL1        0.0054
      7 C          63.2317   84.8762   16.4103 C.3     1  UNL1        0.0896
      8 O          65.3137   84.3004   14.3286 O.2     1  UNL1       -0.2701
      9 C          63.9763   83.6248   14.2587 C.2     1  UNL1        0.2458
     10 N          62.9353   83.9127   15.2996 N.am    1  UNL1       -0.3009
     11 H          62.0575   83.4692   15.2537 H       1  UNL1        0.1497
     12 C          63.6799   82.6612   13.1480 C.ar    1  UNL1        0.0534
     13 C          62.9897   81.3631   13.4454 C.ar    1  UNL1        0.0054
     14 C          62.6933   80.3996   12.3347 C.ar    1  UNL1        0.0115
     15 C          63.0872   80.7341   10.9265 C.ar    1  UNL1        0.0577
     16 CL         62.7908   79.7705    9.8158 Cl      1  UNL1       -0.0822
     17 C          63.7775   82.0322   10.6291 C.ar    1  UNL1        0.0115
     18 C          64.0738   82.9957   11.7398 C.ar    1  UNL1        0.0054
     19 O          64.2164   91.2693   15.0631 O.3     1  UNL1       -0.4791
     20 C          64.6189   91.6912   13.6810 C.ar    1  UNL1        0.1414
     21 C          65.8526   92.5202   13.4794 C.ar    1  UNL1        0.0576
     22 C          66.2551   92.9420   12.0974 C.ar    1  UNL1        0.1019
     23 N          65.4238   92.5349   10.9170 N.ar    1  UNL1       -0.2436
     24 C          64.1901   91.7059   11.1187 C.ar    1  UNL1        0.0844
     25 C          63.3589   91.2987    9.9383 C.ar    1  UNL1        0.0215
     26 C          62.1252   90.4698   10.1400 C.ar    1  UNL1        0.0312
     27 C          61.7227   90.0479   11.5221 C.ar    1  UNL1        0.1403
     28 F          60.4890   89.2189   11.7237 F       1  UNL1       -0.2042
     29 C          62.5539   90.4550   12.7024 C.ar    1  UNL1        0.0342
     30 C          63.7877   91.2840   12.5007 C.ar    1  UNL1        0.0539
@<TRIPOS>BOND
     1     8     9    2
     2     9    10   am
     3    10     7    1
     4     1     7    1
     5     1     2    1
     6     2     3    1
     7     3     4    1
     8     4    19    1
     9    19    20    1
    10    20    21   ar
    11    21    22   ar
    12    22    23   ar
    13    23    24   ar
    14    24    25   ar
    15    25    26   ar
    16    26    27   ar
    17    27    28    1
    18    27    29   ar
    19    29    30   ar
    20     4     5    1
    21     6     5    1
    22     9    12    1
    23    12    13   ar
    24    13    14   ar
    25    14    15   ar
    26    15    16    1
    27    15    17   ar
    28    17    18   ar
    29     6     1    1
    30    18    12   ar
    31     6     2    1
    32    30    20   ar
    33    30    24   ar
    34    10    11    1
@<TRIPOS>MOLECULE
*****
 30 34 0 0 0
SMALL
GASTEIGER

@<TRIPOS>ATOM
      1 C          64.8154   90.1925   14.1030 C.3     1  UNL1        0.0199
      2 C          63.9575   89.2665   13.2929 C.3     1  UNL1        0.0054
      3 C          63.1767   88.1301   12.7021 C.3     1  UNL1        0.0436
      4 C          63.3667   86.9302   13.5820 C.3     1  UNL1        0.1659
      5 C          64.2649   87.3251   14.7166 C.3     1  UNL1        0.0436
      6 C          64.6300   88.7690   14.5379 C.3     1  UNL1        0.0054
      7 C          65.4179   91.5490   14.3197 C.3     1  UNL1        0.0896
      8 O          67.9717   91.9003   12.7853 O.2     1  UNL1       -0.2701
      9 C          66.7603   92.7058   12.4198 C.2     1  UNL1        0.2458
     10 N          65.4834   92.5301   13.1870 N.am    1  UNL1       -0.3009
     11 H          64.6883   93.0588   12.9471 H       1  UNL1        0.1497
     12 C          66.8258   93.6870   11.2870 C.ar    1  UNL1        0.0534
     13 C          67.4481   93.2860    9.9825 C.ar    1  UNL1        0.0054
     14 C          67.5135   94.2672    8.8498 C.ar    1  UNL1        0.0115
     15 C          66.9567   95.6493    9.0217 C.ar    1  UNL1        0.0577
     16 CL         67.0221   96.6305    7.8890 Cl      1  UNL1       -0.0822
     17 C          66.3344   96.0503   10.3263 C.ar    1  UNL1        0.0115
     18 C          66.2689   95.0691   11.4589 C.ar    1  UNL1        0.0054
     19 O          62.7643   85.5737   13.3653 O.3     1  UNL1       -0.4791
     20 C          63.2907   84.6842   12.2782 C.ar    1  UNL1        0.1414
     21 C          64.1583   83.5104   12.6238 C.ar    1  UNL1        0.0576
     22 C          64.6847   82.6210   11.5367 C.ar    1  UNL1        0.1019
     23 N          64.3434   82.9054   10.1040 N.ar    1  UNL1       -0.2436
     24 C          63.4758   84.0792    9.7584 C.ar    1  UNL1        0.0844
     25 C          63.1346   84.3635    8.3256 C.ar    1  UNL1        0.0215
     26 C          62.2670   85.5373    7.9800 C.ar    1  UNL1        0.0312
     27 C          61.7406   86.4268    9.0672 C.ar    1  UNL1        0.1403
     28 F          60.8730   87.6005    8.7216 F       1  UNL1       -0.2042
     29 C          62.0818   86.1424   10.4999 C.ar    1  UNL1        0.0342
     30 C          62.9495   84.9686   10.8455 C.ar    1  UNL1        0.0539
@<TRIPOS>BOND
     1     8     9    2
     2     9    10   am
     3    10     7    1
     4     1     7    1
     5     1     2    1
     6     2     3    1
     7     3     4    1
     8     4    19    1
     9    19    20    1
    10    20    21   ar
    11    21    22   ar
    12    22    23   ar
    13    23    24   ar
    14    24    25   ar
    15    25    26   ar
    16    26    27   ar
    17    27    28    1
    18    27    29   ar
    19    29    30   ar
    20     4     5    1
    21     6     5    1
    22     9    12    1
    23    12    13   ar
    24    13    14   ar
    25    14    15   ar
    26    15    16    1
    27    15    17   ar
    28    17    18   ar
    29     6     1    1
    30    18    12   ar
    31     6     2    1
    32    30    20   ar
    33    30    24   ar
    34    10    11    1
@<TRIPOS>MOLECULE
*****
 30 34 0 0 0
SMALL
GASTEIGER

@<TRIPOS>ATOM
      1 C          61.7227   88.5999   10.9950 C.3     1  UNL1        0.0199
      2 C          62.3658   89.8362   10.4401 C.3     1  UNL1        0.0054
      3 C          63.1404   91.0918   10.1694 C.3     1  UNL1        0.0436
      4 C          63.9038   91.4426   11.4120 C.3     1  UNL1        0.1659
      5 C          63.6010   90.4038   12.4508 C.3     1  UNL1        0.0436
      6 C          62.6504   89.4109   11.8501 C.3     1  UNL1        0.0054
      7 C          60.8157   87.4178   10.8215 C.3     1  UNL1        0.0896
      8 O          62.9347   85.5528    9.8059 O.2     1  UNL1       -0.2701
      9 C          62.1616   85.2067   11.0439 C.2     1  UNL1        0.2458
     10 N          61.1021   86.1392   11.5517 N.am    1  UNL1       -0.3009
     11 H          60.5947   85.9121   12.3642 H       1  UNL1        0.1497
     12 C          62.4480   83.9280   11.7741 C.ar    1  UNL1        0.0534
     13 C          62.7116   82.6678   11.0045 C.ar    1  UNL1        0.0054
     14 C          62.9980   81.3892   11.7348 C.ar    1  UNL1        0.0115
     15 C          63.0207   81.3709   13.2345 C.ar    1  UNL1        0.0577
     16 CL         63.3071   80.0923   13.9647 Cl      1  UNL1       -0.0822
     17 C          62.7571   82.6312   14.0040 C.ar    1  UNL1        0.0115
     18 C          62.4707   83.9098   13.2738 C.ar    1  UNL1        0.0054
     19 O          64.8108   92.6247   11.5854 O.3     1  UNL1       -0.4791
     20 C          66.2597   92.4166   11.9136 C.ar    1  UNL1        0.1414
     21 C          67.2607   92.2403   10.8105 C.ar    1  UNL1        0.0576
     22 C          68.7095   92.0322   11.1387 C.ar    1  UNL1        0.1019
     23 N          69.1572   92.0004   12.5699 N.ar    1  UNL1       -0.2436
     24 C          68.1562   92.1768   13.6730 C.ar    1  UNL1        0.0844
     25 C          68.6039   92.1450   15.1043 C.ar    1  UNL1        0.0215
     26 C          67.6029   92.3214   16.2074 C.ar    1  UNL1        0.0312
     27 C          66.1540   92.5295   15.8792 C.ar    1  UNL1        0.1403
     28 F          65.1530   92.7058   16.9823 F       1  UNL1       -0.2042
     29 C          65.7063   92.5612   14.4479 C.ar    1  UNL1        0.0342
     30 C          66.7074   92.3848   13.3448 C.ar    1  UNL1        0.0539
@<TRIPOS>BOND
     1     8     9    2
     2     9    10   am
     3    10     7    1
     4     1     7    1
     5     1     2    1
     6     2     3    1
     7     3     4    1
     8     4    19    1
     9    19    20    1
    10    20    21   ar
    11    21    22   ar
    12    22    23   ar
    13    23    24   ar
    14    24    25   ar
    15    25    26   ar
    16    26    27   ar
    17    27    28    1
    18    27    29   ar
    19    29    30   ar
    20     4     5    1
    21     6     5    1
    22     9    12    1
    23    12    13   ar
    24    13    14   ar
    25    14    15   ar
    26    15    16    1
    27    15    17   ar
    28    17    18   ar
    29     6     1    1
    30    18    12   ar
    31     6     2    1
    32    30    20   ar
    33    30    24   ar
    34    10    11    1
@<TRIPOS>MOLECULE
*****
 30 34 0 0 0
SMALL
GASTEIGER

@<TRIPOS>ATOM
      1 C          63.4694   86.2071   16.0583 C.3     1  UNL1        0.0199
      2 C          63.8894   87.2982   15.1186 C.3     1  UNL1        0.0054
      3 C          64.1863   88.5789   14.3964 C.3     1  UNL1        0.0436
      4 C          63.6859   89.7137   15.2401 C.3     1  UNL1        0.1659
      5 C          63.0796   89.1343   16.4837 C.3     1  UNL1        0.0436
      6 C          63.2053   87.6414   16.4087 C.3     1  UNL1        0.0054
      7 C          63.3794   84.7489   16.3985 C.3     1  UNL1        0.0896
      8 O          65.2832   84.3213   14.1198 O.2     1  UNL1       -0.2701
      9 C          64.0084   83.5340   14.1898 C.2     1  UNL1        0.2458
     10 N          63.0565   83.7478   15.3292 N.am    1  UNL1       -0.3009
     11 H          62.2197   83.2311   15.3751 H       1  UNL1        0.1497
     12 C          63.6854   82.5328   13.1205 C.ar    1  UNL1        0.0534
     13 C          64.0065   82.8365   11.6871 C.ar    1  UNL1        0.0054
     14 C          63.6835   81.8354   10.6179 C.ar    1  UNL1        0.0115
     15 C          63.0395   80.5305   10.9820 C.ar    1  UNL1        0.0577
     16 CL         62.7165   79.5294    9.9126 Cl      1  UNL1       -0.0822
     17 C          62.7184   80.2268   12.4154 C.ar    1  UNL1        0.0115
     18 C          63.0414   81.2280   13.4846 C.ar    1  UNL1        0.0054
     19 O          63.7759   91.1718   14.8998 O.3     1  UNL1       -0.4791
     20 C          64.6712   91.6282   13.7862 C.ar    1  UNL1        0.1414
     21 C          64.1226   91.7847   12.3990 C.ar    1  UNL1        0.0576
     22 C          65.0179   92.2411   11.2855 C.ar    1  UNL1        0.1019
     23 N          66.4619   92.5410   11.5592 N.ar    1  UNL1       -0.2436
     24 C          67.0106   92.3846   12.9464 C.ar    1  UNL1        0.0844
     25 C          68.4546   92.6846   13.2201 C.ar    1  UNL1        0.0215
     26 C          69.0032   92.5281   14.6073 C.ar    1  UNL1        0.0312
     27 C          68.1078   92.0717   15.7210 C.ar    1  UNL1        0.1403
     28 F          68.6565   91.9153   17.1082 F       1  UNL1       -0.2042
     29 C          66.6638   91.7717   15.4473 C.ar    1  UNL1        0.0342
     30 C          66.1152   91.9282   14.0599 C.ar    1  UNL1        0.0539
@<TRIPOS>BOND
     1     8     9    2
     2     9    10   am
     3    10     7    1
     4     1     7    1
     5     1     2    1
     6     2     3    1
     7     3     4    1
     8     4    19    1
     9    19    20    1
    10    20    21   ar
    11    21    22   ar
    12    22    23   ar
    13    23    24   ar
    14    24    25   ar
    15    25    26   ar
    16    26    27   ar
    17    27    28    1
    18    27    29   ar
    19    29    30   ar
    20     4     5    1
    21     6     5    1
    22     9    12    1
    23    12    13   ar
    24    13    14   ar
    25    14    15   ar
    26    15    16    1
    27    15    17   ar
    28    17    18   ar
    29     6     1    1
    30    18    12   ar
    31     6     2    1
    32    30    20   ar
    33    30    24   ar
    34    10    11    1
@<TRIPOS>MOLECULE
*****
 30 34 0 0 0
SMALL
GASTEIGER

@<TRIPOS>ATOM
      1 C          63.8897   85.5045   15.9868 C.3     1  UNL1        0.0199
      2 C          63.4411   86.8918   16.3388 C.3     1  UNL1        0.0054
      3 C          63.1259   88.3562   16.4178 C.3     1  UNL1        0.0436
      4 C          63.6707   89.0147   15.1851 C.3     1  UNL1        0.1659
      5 C          64.3225   87.9573   14.3443 C.3     1  UNL1        0.0436
      6 C          64.1806   86.6452   15.0573 C.3     1  UNL1        0.0054
      7 C          63.9807   84.0448   16.3201 C.3     1  UNL1        0.0896
      8 O          62.0325   84.3232   14.0558 O.2     1  UNL1       -0.2701
      9 C          62.9803   83.1612   14.0912 C.2     1  UNL1        0.2458
     10 N          63.9544   83.0219   15.2233 N.am    1  UNL1       -0.3009
     11 H          64.5764   82.2592   15.2465 H       1  UNL1        0.1497
     12 C          62.9539   82.1382   12.9943 C.ar    1  UNL1        0.0534
     13 C          63.3179   82.5313   11.5933 C.ar    1  UNL1        0.0054
     14 C          63.2915   81.5084   10.4966 C.ar    1  UNL1        0.0115
     15 C          62.9013   80.0924   10.8009 C.ar    1  UNL1        0.0577
     16 CL         62.8750   79.0694    9.7040 Cl      1  UNL1       -0.0822
     17 C          62.5374   79.6993   12.2019 C.ar    1  UNL1        0.0115
     18 C          62.5637   80.7222   13.2987 C.ar    1  UNL1        0.0054
     19 O          63.5797   90.4744   14.8517 O.3     1  UNL1       -0.4791
     20 C          63.7083   90.9279   13.4277 C.ar    1  UNL1        0.1414
     21 C          62.6986   90.4921   12.4076 C.ar    1  UNL1        0.0576
     22 C          62.8272   90.9456   10.9837 C.ar    1  UNL1        0.1019
     23 N          63.9656   91.8350   10.5797 N.ar    1  UNL1       -0.2436
     24 C          64.9753   92.2708   11.5998 C.ar    1  UNL1        0.0844
     25 C          66.1136   93.1602   11.1958 C.ar    1  UNL1        0.0215
     26 C          67.1233   93.5960   12.2158 C.ar    1  UNL1        0.0312
     27 C          66.9947   93.1425   13.6399 C.ar    1  UNL1        0.1403
     28 F          68.0044   93.5784   14.6599 F       1  UNL1       -0.2042
     29 C          65.8564   92.2531   14.0438 C.ar    1  UNL1        0.0342
     30 C          64.8466   91.8173   13.0237 C.ar    1  UNL1        0.0539
@<TRIPOS>BOND
     1     8     9    2
     2     9    10   am
     3    10     7    1
     4     1     7    1
     5     1     2    1
     6     2     3    1
     7     3     4    1
     8     4    19    1
     9    19    20    1
    10    20    21   ar
    11    21    22   ar
    12    22    23   ar
    13    23    24   ar
    14    24    25   ar
    15    25    26   ar
    16    26    27   ar
    17    27    28    1
    18    27    29   ar
    19    29    30   ar
    20     4     5    1
    21     6     5    1
    22     9    12    1
    23    12    13   ar
    24    13    14   ar
    25    14    15   ar
    26    15    16    1
    27    15    17   ar
    28    17    18   ar
    29     6     1    1
    30    18    12   ar
    31     6     2    1
    32    30    20   ar
    33    30    24   ar
    34    10    11    1
@<TRIPOS>MOLECULE
*****
 30 34 0 0 0
SMALL
GASTEIGER

@<TRIPOS>ATOM
      1 C          63.7276   90.0836   12.9488 C.3     1  UNL1        0.0199
      2 C          63.0678   89.0411   12.0957 C.3     1  UNL1        0.0054
      3 C          62.5377   87.7977   11.4455 C.3     1  UNL1        0.0436
      4 C          63.0207   86.6186   12.2371 C.3     1  UNL1        0.1659
      5 C          63.8492   87.1334   13.3766 C.3     1  UNL1        0.0436
      6 C          63.8783   88.6306   13.2892 C.3     1  UNL1        0.0054
      7 C          64.0216   91.5245   13.2447 C.3     1  UNL1        0.0896
      8 O          66.8941   92.3741   13.0808 O.2     1  UNL1       -0.2701
      9 C          65.9077   92.8643   12.0627 C.2     1  UNL1        0.2458
     10 N          64.4715   92.4395   12.1446 N.am    1  UNL1       -0.3009
     11 H          63.8241   92.7612   11.4763 H       1  UNL1        0.1497
     12 C          66.3576   93.7793   10.9624 C.ar    1  UNL1        0.0534
     13 C          67.2990   93.2779    9.9078 C.ar    1  UNL1        0.0054
     14 C          67.7488   94.1930    8.8077 C.ar    1  UNL1        0.0115
     15 C          67.2572   95.6094    8.7621 C.ar    1  UNL1        0.0577
     16 CL         67.7070   96.5244    7.6619 Cl      1  UNL1       -0.0822
     17 C          66.3158   96.1108    9.8168 C.ar    1  UNL1        0.0115
     18 C          65.8660   95.1958   10.9169 C.ar    1  UNL1        0.0054
     19 O          62.7267   85.1778   11.9411 O.3     1  UNL1       -0.4791
     20 C          62.6523   84.1822   13.0607 C.ar    1  UNL1        0.1414
     21 C          62.5272   84.6558   14.4784 C.ar    1  UNL1        0.0576
     22 C          62.4528   83.6603   15.5979 C.ar    1  UNL1        0.1019
     23 N          62.5035   82.1911   15.2996 N.ar    1  UNL1       -0.2436
     24 C          62.6287   81.7175   13.8819 C.ar    1  UNL1        0.0844
     25 C          62.6794   80.2483   13.5836 C.ar    1  UNL1        0.0215
     26 C          62.8045   79.7747   12.1659 C.ar    1  UNL1        0.0312
     27 C          62.8789   80.7703   11.0463 C.ar    1  UNL1        0.1403
     28 F          63.0040   80.2967    9.6286 F       1  UNL1       -0.2042
     29 C          62.8282   82.2395   11.3446 C.ar    1  UNL1        0.0342
     30 C          62.7030   82.7130   12.7624 C.ar    1  UNL1        0.0539
@<TRIPOS>BOND
     1     8     9    2
     2     9    10   am
     3    10     7    1
     4     1     7    1
     5     1     2    1
     6     2     3    1
     7     3     4    1
     8     4    19    1
     9    19    20    1
    10    20    21   ar
    11    21    22   ar
    12    22    23   ar
    13    23    24   ar
    14    24    25   ar
    15    25    26   ar
    16    26    27   ar
    17    27    28    1
    18    27    29   ar
    19    29    30   ar
    20     4     5    1
    21     6     5    1
    22     9    12    1
    23    12    13   ar
    24    13    14   ar
    25    14    15   ar
    26    15    16    1
    27    15    17   ar
    28    17    18   ar
    29     6     1    1
    30    18    12   ar
    31     6     2    1
    32    30    20   ar
    33    30    24   ar
    34    10    11    1
@<TRIPOS>MOLECULE
*****
 30 34 0 0 0
SMALL
GASTEIGER

@<TRIPOS>ATOM
      1 C          62.8167   89.4703   11.5729 C.3     1  UNL1        0.0199
      2 C          63.6823   90.1678   12.5799 C.3     1  UNL1        0.0054
      3 C          64.5861   91.0770   13.3587 C.3     1  UNL1        0.0436
      4 C          64.9498   92.2351   12.4776 C.3     1  UNL1        0.1659
      5 C          64.2708   92.0417   11.1542 C.3     1  UNL1        0.0436
      6 C          63.4874   90.7640   11.2174 C.3     1  UNL1        0.0054
      7 C          61.9297   88.3207   11.1967 C.3     1  UNL1        0.0896
      8 O          62.5955   85.8567    9.6201 O.2     1  UNL1       -0.2701
      9 C          62.4091   85.7688   11.1058 C.2     1  UNL1        0.2458
     10 N          62.0762   87.0008   11.8941 N.am    1  UNL1       -0.3009
     11 H          61.9539   86.9431   12.8693 H       1  UNL1        0.1497
     12 C          62.5557   84.4490   11.8034 C.ar    1  UNL1        0.0534
     13 C          62.7274   83.1924   11.0025 C.ar    1  UNL1        0.0054
     14 C          62.8739   81.8726   11.7000 C.ar    1  UNL1        0.0115
     15 C          62.8487   81.8094   13.1985 C.ar    1  UNL1        0.0577
     16 CL         62.9952   80.4895   13.8960 Cl      1  UNL1       -0.0822
     17 C          62.6770   83.0659   13.9994 C.ar    1  UNL1        0.0115
     18 C          62.5304   84.3857   13.3018 C.ar    1  UNL1        0.0054
     19 O          65.8368   93.3847   12.8538 O.3     1  UNL1       -0.4791
     20 C          66.2325   94.3965   11.8194 C.ar    1  UNL1        0.1414
     21 C          65.8692   95.8400   12.0047 C.ar    1  UNL1        0.0576
     22 C          66.2649   96.8516   10.9703 C.ar    1  UNL1        0.1019
     23 N          67.0239   96.4198    9.7507 N.ar    1  UNL1       -0.2436
     24 C          67.3871   94.9763    9.5654 C.ar    1  UNL1        0.0844
     25 C          68.1461   94.5445    8.3457 C.ar    1  UNL1        0.0215
     26 C          68.5093   93.1010    8.1604 C.ar    1  UNL1        0.0312
     27 C          68.1136   92.0893    9.1948 C.ar    1  UNL1        0.1403
     28 F          68.4769   90.6458    9.0095 F       1  UNL1       -0.2042
     29 C          67.3547   92.5211   10.4145 C.ar    1  UNL1        0.0342
     30 C          66.9914   93.9647   10.5997 C.ar    1  UNL1        0.0539
@<TRIPOS>BOND
     1     8     9    2
     2     9    10   am
     3    10     7    1
     4     1     7    1
     5     1     2    1
     6     2     3    1
     7     3     4    1
     8     4    19    1
     9    19    20    1
    10    20    21   ar
    11    21    22   ar
    12    22    23   ar
    13    23    24   ar
    14    24    25   ar
    15    25    26   ar
    16    26    27   ar
    17    27    28    1
    18    27    29   ar
    19    29    30   ar
    20     4     5    1
    21     6     5    1
    22     9    12    1
    23    12    13   ar
    24    13    14   ar
    25    14    15   ar
    26    15    16    1
    27    15    17   ar
    28    17    18   ar
    29     6     1    1
    30    18    12   ar
    31     6     2    1
    32    30    20   ar
    33    30    24   ar
    34    10    11    1
@<TRIPOS>MOLECULE
*****
 30 34 0 0 0
SMALL
GASTEIGER

@<TRIPOS>ATOM
      1 C          62.0446   90.0444   12.1090 C.3     1  UNL1        0.0199
      2 C          63.1444   90.5278   13.0070 C.3     1  UNL1        0.0054
      3 C          64.3258   91.1850   13.6570 C.3     1  UNL1        0.0436
      4 C          64.9451   92.1173   12.6584 C.3     1  UNL1        0.1659
      5 C          64.1466   92.0363   11.3913 C.3     1  UNL1        0.0436
      6 C          63.0337   91.0539   11.6067 C.3     1  UNL1        0.0054
      7 C          60.8384   89.1824   11.8805 C.3     1  UNL1        0.0896
      8 O          62.9109   87.0800   11.3467 O.2     1  UNL1       -0.2701
      9 C          61.7819   87.2828   10.3801 C.2     1  UNL1        0.2458
     10 N          60.7457   88.3339   10.6470 N.am    1  UNL1       -0.3009
     11 H          60.0047   88.4670   10.0126 H       1  UNL1        0.1497
     12 C          61.6891   86.4343    9.1465 C.ar    1  UNL1        0.0534
     13 C          62.8708   85.6237    8.7032 C.ar    1  UNL1        0.0054
     14 C          62.7779   84.7753    7.4697 C.ar    1  UNL1        0.0115
     15 C          61.5035   84.7375    6.6795 C.ar    1  UNL1        0.0577
     16 CL         61.4107   83.8891    5.4460 Cl      1  UNL1       -0.0822
     17 C          60.3219   85.5482    7.1228 C.ar    1  UNL1        0.0115
     18 C          60.4147   86.3966    8.3563 C.ar    1  UNL1        0.0054
     19 O          66.1513   92.9793   12.8869 O.3     1  UNL1       -0.4791
     20 C          66.3577   94.2145   12.0611 C.ar    1  UNL1        0.1414
     21 C          65.9222   95.5499   12.5873 C.ar    1  UNL1        0.0576
     22 C          66.1286   96.7850   11.7615 C.ar    1  UNL1        0.1019
     23 N          66.7706   96.6846   10.4095 N.ar    1  UNL1       -0.2436
     24 C          67.2062   95.3492    9.8834 C.ar    1  UNL1        0.0844
     25 C          67.8482   95.2488    8.5314 C.ar    1  UNL1        0.0215
     26 C          68.2837   93.9134    8.0053 C.ar    1  UNL1        0.0312
     27 C          68.0773   92.6782    8.8311 C.ar    1  UNL1        0.1403
     28 F          68.5129   91.3428    8.3049 F       1  UNL1       -0.2042
     29 C          67.4353   92.7786   10.1830 C.ar    1  UNL1        0.0342
     30 C          66.9997   94.1141   10.7092 C.ar    1  UNL1        0.0539
@<TRIPOS>BOND
     1     8     9    2
     2     9    10   am
     3    10     7    1
     4     1     7    1
     5     1     2    1
     6     2     3    1
     7     3     4    1
     8     4    19    1
     9    19    20    1
    10    20    21   ar
    11    21    22   ar
    12    22    23   ar
    13    23    24   ar
    14    24    25   ar
    15    25    26   ar
    16    26    27   ar
    17    27    28    1
    18    27    29   ar
    19    29    30   ar
    20     4     5    1
    21     6     5    1
    22     9    12    1
    23    12    13   ar
    24    13    14   ar
    25    14    15   ar
    26    15    16    1
    27    15    17   ar
    28    17    18   ar
    29     6     1    1
    30    18    12   ar
    31     6     2    1
    32    30    20   ar
    33    30    24   ar
    34    10    11    1
