@<TRIPOS>MOLECULE
*****
 27 31 0 0 0
SMALL
GASTEIGER

@<TRIPOS>ATOM
      1 C          65.3108   91.7661   13.0000 C.3     1  UNL1        0.0275
      2 C          64.4217   91.6863   11.7946 C.3     1  UNL1        0.0044
      3 C          63.4419   90.5586   11.6586 C.3     1  UNL1        0.0027
      4 C          63.3513   89.5109   12.7281 C.3     1  UNL1        0.0269
      5 C          64.2404   89.5907   13.9336 C.3     1  UNL1        0.0027
      6 C          65.2201   90.7183   14.0695 C.3     1  UNL1        0.0044
      7 C          63.6318   91.1760   11.2276 C.3     1  UNL1        0.0027
      8 C          62.5528   90.4788   10.4532 C.3     1  UNL1        0.0269
      9 C          63.5326   91.6064   10.5891 C.3     1  UNL1        0.0027
     10 C          62.4622   89.4310   11.5226 C.3     1  UNL1        0.1104
     11 O          61.4824   88.3033   11.3867 O.3     1  UNL1       -0.3845
     12 H          61.5523   87.7195   12.1582 H       1  UNL1        0.2103
     13 C          66.3576   92.2707   13.9484 C.ar    1  UNL1       -0.0223
     14 C          66.5337   93.7460   14.1552 C.ar    1  UNL1       -0.0043
     15 C          67.5805   94.2507   15.1036 C.ar    1  UNL1       -0.0003
     16 C          68.4513   93.2802   15.8451 C.ar    1  UNL1       -0.0000
     17 C          68.2753   91.8051   15.6383 C.ar    1  UNL1       -0.0003
     18 C          67.2284   91.3003   14.6899 C.ar    1  UNL1       -0.0043
     19 C          65.7650   92.9891   12.2599 C.3     1  UNL1        0.0893
     20 O          67.6920   91.6410   11.1558 O.2     1  UNL1       -0.2749
     21 C          66.8568   92.8844   11.2367 C.2     1  UNL1        0.2261
     22 N          67.1134   94.0229   10.2944 N.am    1  UNL1       -0.2744
     23 C          68.0816   94.2776    9.1774 C.3     1  UNL1        0.1244
     24 C          67.4763   95.6331    8.9618 C.3     1  UNL1        0.1500
     25 O          67.7330   96.7716    8.0195 O.3     1  UNL1       -0.3810
     26 C          66.5082   95.3783   10.0789 C.3     1  UNL1        0.1244
     27 H          68.4666   96.5424    7.4278 H       1  UNL1        0.2105
@<TRIPOS>BOND
     1    20    21    2
     2    21    19    1
     3    19     1    1
     4     1    13    1
     5    13    14   ar
     6    14    15   ar
     7    15    16   ar
     8    16    17   ar
     9    17    18   ar
    10     1     2    1
    11     2     3    1
    12     3     4    1
    13     4     5    1
    14     5     6    1
    15     6     7    1
    16     7     8    1
    17     8     9    1
    18     8    10    1
    19    10    11    1
    20    21    22   am
    21    22    23    1
    22    23    24    1
    23    24    25    1
    24    24    26    1
    25     6     1    1
    26    26    22    1
    27    18    13   ar
    28     9     2    1
    29    10     4    1
    30    11    12    1
    31    25    27    1
@<TRIPOS>MOLECULE
*****
 27 31 0 0 0
SMALL
GASTEIGER

@<TRIPOS>ATOM
      1 C          64.3221   90.1613   13.6047 C.3     1  UNL1        0.0275
      2 C          64.3226   90.9017   12.3002 C.3     1  UNL1        0.0044
      3 C          65.0948   92.1804   12.1639 C.3     1  UNL1        0.0027
      4 C          65.8665   92.7186   13.3321 C.3     1  UNL1        0.0269
      5 C          65.8660   91.9782   14.6366 C.3     1  UNL1        0.0027
      6 C          65.0938   90.6995   14.7729 C.3     1  UNL1        0.0044
      7 C          64.6491   91.7551   11.6912 C.3     1  UNL1        0.0027
      8 C          65.0953   92.9208   10.8594 C.3     1  UNL1        0.0269
      9 C          64.3231   91.6421   10.9957 C.3     1  UNL1        0.0027
     10 C          65.8670   93.4591   12.0276 C.3     1  UNL1        0.1104
     11 O          66.6392   94.7378   11.8913 O.3     1  UNL1       -0.3845
     12 H          67.0771   94.9423   12.7323 H       1  UNL1        0.2103
     13 C          64.0167   89.1067   14.6267 C.ar    1  UNL1       -0.0223
     14 C          64.3471   87.6709   14.3447 C.ar    1  UNL1       -0.0043
     15 C          64.0418   86.6163   15.3666 C.ar    1  UNL1       -0.0003
     16 C          63.4060   86.9973   16.6707 C.ar    1  UNL1       -0.0000
     17 C          63.0755   88.4329   16.9528 C.ar    1  UNL1       -0.0003
     18 C          63.3809   89.4877   15.9308 C.ar    1  UNL1       -0.0043
     19 C          63.4443   89.2568   12.7915 C.3     1  UNL1        0.0893
     20 O          61.1505   90.0066   13.7540 O.2     1  UNL1       -0.2749
     21 C          61.9989   89.6008   12.5853 C.2     1  UNL1        0.2261
     22 N          61.4019   89.5392   11.2107 N.am    1  UNL1       -0.2744
     23 C          60.0433   89.8017   10.6315 C.3     1  UNL1        0.1244
     24 C          60.5576   89.4521    9.2665 C.3     1  UNL1        0.1500
     25 O          59.9606   89.3904    7.8919 O.3     1  UNL1       -0.3810
     26 C          61.9162   89.1895    9.8457 C.3     1  UNL1        0.1244
     27 H          59.0245   89.6411    7.9344 H       1  UNL1        0.2105
@<TRIPOS>BOND
     1    20    21    2
     2    21    19    1
     3    19     1    1
     4     1    13    1
     5    13    14   ar
     6    14    15   ar
     7    15    16   ar
     8    16    17   ar
     9    17    18   ar
    10     1     2    1
    11     2     3    1
    12     3     4    1
    13     4     5    1
    14     5     6    1
    15     6     7    1
    16     7     8    1
    17     8     9    1
    18     8    10    1
    19    10    11    1
    20    21    22   am
    21    22    23    1
    22    23    24    1
    23    24    25    1
    24    24    26    1
    25     6     1    1
    26    26    22    1
    27    18    13   ar
    28     9     2    1
    29    10     4    1
    30    11    12    1
    31    25    27    1
@<TRIPOS>MOLECULE
*****
 27 31 0 0 0
SMALL
GASTEIGER

@<TRIPOS>ATOM
      1 C          64.8095   90.9305   13.0892 C.3     1  UNL1        0.0275
      2 C          63.8044   89.8546   12.8022 C.3     1  UNL1        0.0044
      3 C          62.9952   89.9016   11.5401 C.3     1  UNL1        0.0027
      4 C          63.1911   91.0245   10.5650 C.3     1  UNL1        0.0269
      5 C          64.1962   92.1003   10.8521 C.3     1  UNL1        0.0027
      6 C          65.0054   92.0533   12.1142 C.3     1  UNL1        0.0044
      7 C          63.0375   89.4198   12.1475 C.3     1  UNL1        0.0027
      8 C          61.9901   88.8258   11.2531 C.3     1  UNL1        0.0269
      9 C          62.7993   88.7788   12.5152 C.3     1  UNL1        0.0027
     10 C          62.1860   89.9486   10.2780 C.3     1  UNL1        0.1104
     11 O          61.3768   89.9957    9.0158 O.3     1  UNL1       -0.3845
     12 H          61.6251   90.7798    8.5016 H       1  UNL1        0.2103
     13 C          65.8751   91.7103   13.8008 C.ar    1  UNL1       -0.0223
     14 C          65.9082   93.2061   13.6927 C.ar    1  UNL1       -0.0043
     15 C          66.9737   93.9860   14.4042 C.ar    1  UNL1       -0.0003
     16 C          68.0062   93.2703   15.2238 C.ar    1  UNL1       -0.0000
     17 C          67.9731   91.7746   15.3319 C.ar    1  UNL1       -0.0003
     18 C          66.9075   90.9946   14.6204 C.ar    1  UNL1       -0.0043
     19 C          64.9836   90.0785   14.3114 C.3     1  UNL1        0.0893
     20 O          63.5152   91.5211   15.8965 O.2     1  UNL1       -0.2749
     21 C          64.0014   90.1772   15.4408 C.2     1  UNL1        0.2261
     22 N          63.5054   88.9322   16.1146 N.am    1  UNL1       -0.2744
     23 C          62.5553   88.6408   17.2380 C.3     1  UNL1        0.1244
     24 C          62.8041   87.1715   17.0673 C.3     1  UNL1        0.1500
     25 O          62.3081   85.9265   17.7411 O.3     1  UNL1       -0.3810
     26 C          63.7542   87.4629   15.9438 C.3     1  UNL1        0.1244
     27 H          61.6843   86.1659   18.4442 H       1  UNL1        0.2105
@<TRIPOS>BOND
     1    20    21    2
     2    21    19    1
     3    19     1    1
     4     1    13    1
     5    13    14   ar
     6    14    15   ar
     7    15    16   ar
     8    16    17   ar
     9    17    18   ar
    10     1     2    1
    11     2     3    1
    12     3     4    1
    13     4     5    1
    14     5     6    1
    15     6     7    1
    16     7     8    1
    17     8     9    1
    18     8    10    1
    19    10    11    1
    20    21    22   am
    21    22    23    1
    22    23    24    1
    23    24    25    1
    24    24    26    1
    25     6     1    1
    26    26    22    1
    27    18    13   ar
    28     9     2    1
    29    10     4    1
    30    11    12    1
    31    25    27    1
@<TRIPOS>MOLECULE
*****
 27 31 0 0 0
SMALL
GASTEIGER

@<TRIPOS>ATOM
      1 C          63.7229   88.2032   13.5316 C.3     1  UNL1        0.0275
      2 C          63.1670   87.2942   12.4758 C.3     1  UNL1        0.0044
      3 C          63.1817   85.8085   12.6816 C.3     1  UNL1        0.0027
      4 C          63.7523   85.2318   13.9433 C.3     1  UNL1        0.0269
      5 C          64.3081   86.1407   14.9991 C.3     1  UNL1        0.0027
      6 C          64.2934   87.6265   14.7933 C.3     1  UNL1        0.0044
      7 C          62.9383   86.2821   12.1165 C.3     1  UNL1        0.0027
      8 C          62.6259   84.8995   11.6258 C.3     1  UNL1        0.0269
      9 C          62.6112   86.3852   11.4200 C.3     1  UNL1        0.0027
     10 C          63.1964   84.3228   12.8875 C.3     1  UNL1        0.1104
     11 O          63.2111   82.8370   13.0933 O.3     1  UNL1       -0.3845
     12 H          63.6108   82.6337   13.9535 H       1  UNL1        0.2103
     13 C          64.1296   89.4646   14.2339 C.ar    1  UNL1       -0.0223
     14 C          63.5775   89.7777   15.5931 C.ar    1  UNL1       -0.0043
     15 C          63.9842   91.0391   16.2955 C.ar    1  UNL1       -0.0003
     16 C          64.9429   91.9876   15.6387 C.ar    1  UNL1       -0.0000
     17 C          65.4949   91.6746   14.2796 C.ar    1  UNL1       -0.0003
     18 C          65.0883   90.4131   13.5772 C.ar    1  UNL1       -0.0043
     19 C          63.2936   89.2180   12.5139 C.3     1  UNL1        0.0893
     20 O          60.9810   89.8248   13.5305 O.2     1  UNL1       -0.2749
     21 C          61.8376   89.5311   12.3347 C.2     1  UNL1        0.2261
     22 N          61.2383   89.5505   10.9597 N.am    1  UNL1       -0.2744
     23 C          59.8704   89.8120   10.4025 C.3     1  UNL1        0.1244
     24 C          60.3907   89.5780    9.0153 C.3     1  UNL1        0.1500
     25 O          59.7914   89.5974    7.6404 O.3     1  UNL1       -0.3810
     26 C          61.7586   89.3165    9.5725 C.3     1  UNL1        0.1244
     27 H          58.8481   89.8152    7.7019 H       1  UNL1        0.2105
@<TRIPOS>BOND
     1    20    21    2
     2    21    19    1
     3    19     1    1
     4     1    13    1
     5    13    14   ar
     6    14    15   ar
     7    15    16   ar
     8    16    17   ar
     9    17    18   ar
    10     1     2    1
    11     2     3    1
    12     3     4    1
    13     4     5    1
    14     5     6    1
    15     6     7    1
    16     7     8    1
    17     8     9    1
    18     8    10    1
    19    10    11    1
    20    21    22   am
    21    22    23    1
    22    23    24    1
    23    24    25    1
    24    24    26    1
    25     6     1    1
    26    26    22    1
    27    18    13   ar
    28     9     2    1
    29    10     4    1
    30    11    12    1
    31    25    27    1
@<TRIPOS>MOLECULE
*****
 27 31 0 0 0
SMALL
GASTEIGER

@<TRIPOS>ATOM
      1 C          63.1932   87.7835   12.6068 C.3     1  UNL1        0.0275
      2 C          64.0254   87.3609   13.7810 C.3     1  UNL1        0.0044
      3 C          64.0411   85.9239   14.2109 C.3     1  UNL1        0.0027
      4 C          63.2245   84.9095   13.4665 C.3     1  UNL1        0.0269
      5 C          62.3922   85.3321   12.2923 C.3     1  UNL1        0.0027
      6 C          62.3766   86.7691   11.8624 C.3     1  UNL1        0.0044
      7 C          64.3838   86.5749   14.4590 C.3     1  UNL1        0.0027
      8 C          64.8733   85.5013   15.3851 C.3     1  UNL1        0.0269
      9 C          64.8577   86.9383   14.9552 C.3     1  UNL1        0.0027
     10 C          64.0567   84.4869   14.6407 C.3     1  UNL1        0.1104
     11 O          64.0723   83.0499   15.0705 O.3     1  UNL1       -0.3845
     12 H          63.4953   82.5318   14.4878 H       1  UNL1        0.2103
     13 C          62.5694   88.6647   11.5655 C.ar    1  UNL1       -0.0223
     14 C          63.2600   89.9262   11.1390 C.ar    1  UNL1       -0.0043
     15 C          62.6362   90.8074   10.0978 C.ar    1  UNL1       -0.0003
     16 C          61.3219   90.4273    9.4830 C.ar    1  UNL1       -0.0000
     17 C          60.6313   89.1659    9.9094 C.ar    1  UNL1       -0.0003
     18 C          61.2550   88.2846   10.9507 C.ar    1  UNL1       -0.0043
     19 C          63.7932   89.1039   12.9895 C.3     1  UNL1        0.0893
     20 O          61.9610   89.5375   14.7798 O.2     1  UNL1       -0.2749
     21 C          63.3317   89.8054   14.2325 C.2     1  UNL1        0.2261
     22 N          64.2408   90.7746   14.9282 N.am    1  UNL1       -0.2744
     23 C          64.1357   91.6370   16.1510 C.3     1  UNL1        0.1244
     24 C          65.5266   92.1453   15.9121 C.3     1  UNL1        0.1500
     25 O          66.4357   93.1146   16.6078 O.3     1  UNL1       -0.3810
     26 C          65.6317   91.2829   14.6893 C.3     1  UNL1        0.1244
     27 H          65.9867   93.4761   17.3879 H       1  UNL1        0.2105
@<TRIPOS>BOND
     1    20    21    2
     2    21    19    1
     3    19     1    1
     4     1    13    1
     5    13    14   ar
     6    14    15   ar
     7    15    16   ar
     8    16    17   ar
     9    17    18   ar
    10     1     2    1
    11     2     3    1
    12     3     4    1
    13     4     5    1
    14     5     6    1
    15     6     7    1
    16     7     8    1
    17     8     9    1
    18     8    10    1
    19    10    11    1
    20    21    22   am
    21    22    23    1
    22    23    24    1
    23    24    25    1
    24    24    26    1
    25     6     1    1
    26    26    22    1
    27    18    13   ar
    28     9     2    1
    29    10     4    1
    30    11    12    1
    31    25    27    1
@<TRIPOS>MOLECULE
*****
 27 31 0 0 0
SMALL
GASTEIGER

@<TRIPOS>ATOM
      1 C          62.5655   87.3159   10.5720 C.3     1  UNL1        0.0275
      2 C          63.1849   87.5640   11.9155 C.3     1  UNL1        0.0044
      3 C          63.2783   88.9616   12.4518 C.3     1  UNL1        0.0027
      4 C          62.7523   90.1113   11.6446 C.3     1  UNL1        0.0269
      5 C          62.1329   89.8633   10.3012 C.3     1  UNL1        0.0027
      6 C          62.0395   88.4656    9.7649 C.3     1  UNL1        0.0044
      7 C          63.4862   88.2595   12.7100 C.3     1  UNL1        0.0027
      8 C          63.8977   89.2097   13.7952 C.3     1  UNL1        0.0269
      9 C          63.8043   87.8120   13.2589 C.3     1  UNL1        0.0027
     10 C          63.3717   90.3593   12.9881 C.3     1  UNL1        0.1104
     11 O          63.4650   91.7571   13.5244 O.3     1  UNL1       -0.3845
     12 H          63.0820   92.3758   12.8830 H       1  UNL1        0.2103
     13 C          62.0689   86.5798    9.3631 C.ar    1  UNL1       -0.0223
     14 C          63.0031   85.7031    8.5827 C.ar    1  UNL1       -0.0043
     15 C          62.5066   84.9670    7.3738 C.ar    1  UNL1       -0.0003
     16 C          61.0760   85.1074    6.9453 C.ar    1  UNL1       -0.0000
     17 C          60.1419   85.9839    7.7256 C.ar    1  UNL1       -0.0003
     18 C          60.6383   86.7202    8.9346 C.ar    1  UNL1       -0.0043
     19 C          62.9191   85.9106   10.9593 C.3     1  UNL1        0.0893
     20 O          60.9360   85.8447   12.6365 O.2     1  UNL1       -0.2749
     21 C          62.1922   85.2375   12.0856 C.2     1  UNL1        0.2261
     22 N          62.7213   83.9573   12.6609 N.am    1  UNL1       -0.2744
     23 C          62.2859   83.0251   13.7525 C.3     1  UNL1        0.1244
     24 C          63.4696   82.1468   13.4746 C.3     1  UNL1        0.1500
     25 O          63.9987   80.8665   14.0500 O.3     1  UNL1       -0.3810
     26 C          63.9050   83.0789   12.3831 C.3     1  UNL1        0.1244
     27 H          63.4147   80.5674   14.7644 H       1  UNL1        0.2105
@<TRIPOS>BOND
     1    20    21    2
     2    21    19    1
     3    19     1    1
     4     1    13    1
     5    13    14   ar
     6    14    15   ar
     7    15    16   ar
     8    16    17   ar
     9    17    18   ar
    10     1     2    1
    11     2     3    1
    12     3     4    1
    13     4     5    1
    14     5     6    1
    15     6     7    1
    16     7     8    1
    17     8     9    1
    18     8    10    1
    19    10    11    1
    20    21    22   am
    21    22    23    1
    22    23    24    1
    23    24    25    1
    24    24    26    1
    25     6     1    1
    26    26    22    1
    27    18    13   ar
    28     9     2    1
    29    10     4    1
    30    11    12    1
    31    25    27    1
@<TRIPOS>MOLECULE
*****
 27 31 0 0 0
SMALL
GASTEIGER

@<TRIPOS>ATOM
      1 C          61.1806   87.4821    9.4130 C.3     1  UNL1        0.0275
      2 C          62.2138   86.5751    8.8134 C.3     1  UNL1        0.0044
      3 C          61.8197   85.5815    7.7611 C.3     1  UNL1        0.0027
      4 C          60.3922   85.4949    7.3085 C.3     1  UNL1        0.0269
      5 C          59.3590   86.4020    7.9082 C.3     1  UNL1        0.0027
      6 C          59.7531   87.3956    8.9605 C.3     1  UNL1        0.0044
      7 C          62.4840   85.7718    8.1151 C.3     1  UNL1        0.0027
      8 C          62.8529   84.6745    7.1614 C.3     1  UNL1        0.0269
      9 C          63.2471   85.6681    8.2137 C.3     1  UNL1        0.0027
     10 C          61.4255   84.5879    6.7088 C.3     1  UNL1        0.1104
     11 O          61.0313   83.5942    5.6565 O.3     1  UNL1       -0.3845
     12 H          60.0801   83.6689    5.4814 H       1  UNL1        0.2103
     13 C          60.5694   88.5478   10.2738 C.ar    1  UNL1       -0.0223
     14 C          59.5962   88.1741   11.3524 C.ar    1  UNL1       -0.0043
     15 C          58.9850   89.2396   12.2131 C.ar    1  UNL1       -0.0003
     16 C          59.3469   90.6789   11.9953 C.ar    1  UNL1       -0.0000
     17 C          60.3201   91.0527   10.9168 C.ar    1  UNL1       -0.0003
     18 C          60.9313   89.9871   10.0560 C.ar    1  UNL1       -0.0043
     19 C          62.3957   87.9388   10.1645 C.3     1  UNL1        0.0893
     20 O          62.3335   85.9807   11.8709 O.2     1  UNL1       -0.2749
     21 C          62.6737   87.4031   11.5378 C.2     1  UNL1        0.2261
     22 N          63.2919   88.2897   12.5778 N.am    1  UNL1       -0.2744
     23 C          63.7036   88.1173   14.0099 C.3     1  UNL1        0.1244
     24 C          64.1661   89.5437   14.0487 C.3     1  UNL1        0.1500
     25 O          64.7842   90.4303   15.0888 O.3     1  UNL1       -0.3810
     26 C          63.7544   89.7161   12.6166 C.3     1  UNL1        0.1244
     27 H          64.8956   89.9321   15.9136 H       1  UNL1        0.2105
@<TRIPOS>BOND
     1    20    21    2
     2    21    19    1
     3    19     1    1
     4     1    13    1
     5    13    14   ar
     6    14    15   ar
     7    15    16   ar
     8    16    17   ar
     9    17    18   ar
    10     1     2    1
    11     2     3    1
    12     3     4    1
    13     4     5    1
    14     5     6    1
    15     6     7    1
    16     7     8    1
    17     8     9    1
    18     8    10    1
    19    10    11    1
    20    21    22   am
    21    22    23    1
    22    23    24    1
    23    24    25    1
    24    24    26    1
    25     6     1    1
    26    26    22    1
    27    18    13   ar
    28     9     2    1
    29    10     4    1
    30    11    12    1
    31    25    27    1
@<TRIPOS>MOLECULE
*****
 27 31 0 0 0
SMALL
GASTEIGER

@<TRIPOS>ATOM
      1 C          63.2368   83.6829   13.3144 C.3     1  UNL1        0.0275
      2 C          63.4461   83.2058   11.9078 C.3     1  UNL1        0.0044
      3 C          63.2020   81.7674   11.5595 C.3     1  UNL1        0.0027
      4 C          62.7486   80.8061   12.6180 C.3     1  UNL1        0.0269
      5 C          62.5393   81.2832   14.0246 C.3     1  UNL1        0.0027
      6 C          62.7834   82.7216   14.3728 C.3     1  UNL1        0.0044
      7 C          63.4314   82.3962   11.1660 C.3     1  UNL1        0.0027
      8 C          63.4112   81.2903   10.1529 C.3     1  UNL1        0.0269
      9 C          63.6553   82.7287   10.5011 C.3     1  UNL1        0.0027
     10 C          62.9578   80.3290   11.2113 C.3     1  UNL1        0.1104
     11 O          62.7137   78.8905   10.8632 O.3     1  UNL1       -0.3845
     12 H          62.4278   78.4100   11.6558 H       1  UNL1        0.2103
     13 C          63.1779   84.6052   14.4959 C.ar    1  UNL1       -0.0223
     14 C          64.3188   85.5377   14.7770 C.ar    1  UNL1       -0.0043
     15 C          64.2600   86.4599   15.9584 C.ar    1  UNL1       -0.0003
     16 C          63.0604   86.4498   16.8588 C.ar    1  UNL1       -0.0000
     17 C          61.9195   85.5175   16.5778 C.ar    1  UNL1       -0.0003
     18 C          61.9783   84.5951   15.3962 C.ar    1  UNL1       -0.0043
     19 C          63.6698   84.9646   12.6663 C.3     1  UNL1        0.0893
     20 O          61.6281   85.1502   11.0703 O.2     1  UNL1       -0.2749
     21 C          62.6722   85.8049   11.9255 C.2     1  UNL1        0.2261
     22 N          62.7186   87.2998   12.0399 N.am    1  UNL1       -0.2744
     23 C          61.9180   88.4326   11.4693 C.3     1  UNL1        0.1244
     24 C          62.7843   89.4139   12.2018 C.3     1  UNL1        0.1500
     25 O          62.8307   90.9088   12.3162 O.3     1  UNL1       -0.3810
     26 C          63.5850   88.2810   12.7724 C.3     1  UNL1        0.1244
     27 H          62.1221   91.2963   11.7791 H       1  UNL1        0.2105
@<TRIPOS>BOND
     1    20    21    2
     2    21    19    1
     3    19     1    1
     4     1    13    1
     5    13    14   ar
     6    14    15   ar
     7    15    16   ar
     8    16    17   ar
     9    17    18   ar
    10     1     2    1
    11     2     3    1
    12     3     4    1
    13     4     5    1
    14     5     6    1
    15     6     7    1
    16     7     8    1
    17     8     9    1
    18     8    10    1
    19    10    11    1
    20    21    22   am
    21    22    23    1
    22    23    24    1
    23    24    25    1
    24    24    26    1
    25     6     1    1
    26    26    22    1
    27    18    13   ar
    28     9     2    1
    29    10     4    1
    30    11    12    1
    31    25    27    1
@<TRIPOS>MOLECULE
*****
 27 31 0 0 0
SMALL
GASTEIGER

@<TRIPOS>ATOM
      1 C          63.2148   86.5130   12.6431 C.3     1  UNL1        0.0275
      2 C          63.1708   87.9603   12.2517 C.3     1  UNL1        0.0044
      3 C          63.7293   89.0038   13.1732 C.3     1  UNL1        0.0027
      4 C          64.3316   88.5999   14.4862 C.3     1  UNL1        0.0269
      5 C          64.3756   87.1525   14.8776 C.3     1  UNL1        0.0027
      6 C          63.8172   86.1090   13.9561 C.3     1  UNL1        0.0044
      7 C          63.3883   89.0131   12.4757 C.3     1  UNL1        0.0027
      8 C          63.6853   90.4511   12.7818 C.3     1  UNL1        0.0269
      9 C          63.1269   89.4077   11.8603 C.3     1  UNL1        0.0027
     10 C          64.2877   90.0472   14.0948 C.3     1  UNL1        0.1104
     11 O          64.8461   91.0907   15.0164 O.3     1  UNL1       -0.3845
     12 H          65.1940   90.6640   15.8150 H       1  UNL1        0.2103
     13 C          63.0269   85.0266   12.5696 C.ar    1  UNL1       -0.0223
     14 C          62.5567   84.2695   13.7762 C.ar    1  UNL1       -0.0043
     15 C          62.3688   82.7832   13.7028 C.ar    1  UNL1       -0.0003
     16 C          62.6509   82.0539   12.4228 C.ar    1  UNL1       -0.0000
     17 C          63.1210   82.8109   11.2162 C.ar    1  UNL1       -0.0003
     18 C          63.3090   84.2973   11.2896 C.ar    1  UNL1       -0.0043
     19 C          62.5472   86.4007   11.3046 C.3     1  UNL1        0.0893
     20 O          60.3811   87.4398   12.2937 O.2     1  UNL1       -0.2749
     21 C          61.1489   86.9108   11.1187 C.2     1  UNL1        0.2261
     22 N          60.5183   86.8919    9.7578 N.am    1  UNL1       -0.2744
     23 C          59.1881   87.3027    9.1993 C.3     1  UNL1        0.1244
     24 C          59.6265   86.8651    7.8332 C.3     1  UNL1        0.1500
     25 O          58.9959   86.8462    6.4723 O.3     1  UNL1       -0.3810
     26 C          60.9567   86.4543    8.3917 C.3     1  UNL1        0.1244
     27 H          58.0976   87.2079    6.5272 H       1  UNL1        0.2105
@<TRIPOS>BOND
     1    20    21    2
     2    21    19    1
     3    19     1    1
     4     1    13    1
     5    13    14   ar
     6    14    15   ar
     7    15    16   ar
     8    16    17   ar
     9    17    18   ar
    10     1     2    1
    11     2     3    1
    12     3     4    1
    13     4     5    1
    14     5     6    1
    15     6     7    1
    16     7     8    1
    17     8     9    1
    18     8    10    1
    19    10    11    1
    20    21    22   am
    21    22    23    1
    22    23    24    1
    23    24    25    1
    24    24    26    1
    25     6     1    1
    26    26    22    1
    27    18    13   ar
    28     9     2    1
    29    10     4    1
    30    11    12    1
    31    25    27    1
