@<TRIPOS>MOLECULE
*****
 28 31 0 0 0
SMALL
GASTEIGER

@<TRIPOS>ATOM
      1 C          63.3657   89.7188   14.2533 C.3     1  UNL1        0.1363
      2 N          64.0603   90.6731   13.3276 N.ar    1  UNL1       -0.2667
      3 C          63.5410   90.8799   11.9357 C.ar    1  UNL1        0.2036
      4 N          64.2356   91.8342   11.0101 N.ar    1  UNL1       -0.2147
      5 C          65.4495   92.5818   11.4764 C.ar    1  UNL1        0.0911
      6 C          65.9688   92.3751   12.8683 C.ar    1  UNL1        0.0801
      7 C          65.2742   91.4207   13.7940 C.ar    1  UNL1        0.2645
      8 O          65.7935   91.2140   15.1860 O.2     1  UNL1       -0.2668
      9 C          66.1441   93.5361   10.5508 C.ar    1  UNL1        0.0485
     10 C          65.6786   94.9586   10.4527 C.ar    1  UNL1        0.0244
     11 C          66.3732   95.9130    9.5271 C.ar    1  UNL1        0.0991
     12 N          67.5333   95.4448    8.6995 N.ar    1  UNL1       -0.2400
     13 C          67.9989   94.0223    8.7976 C.ar    1  UNL1        0.1285
     14 C          67.3043   93.0679    9.7232 C.ar    1  UNL1        0.1606
     15 F          67.7698   91.6453    9.8213 F       1  UNL1       -0.2025
     16 N          62.3271   90.1322   11.4693 N.pl3   1  UNL1       -0.2740
     17 C          60.9704   90.5064   11.9884 C.3     1  UNL1        0.1257
     18 C          59.7565   89.7588   11.5220 C.3     1  UNL1        0.1640
     19 O          59.8992   88.6370   10.5365 O.3     1  UNL1       -0.3483
     20 C          61.2560   88.2628   10.0174 C.3     1  UNL1        0.1572
     21 C          62.4698   89.0105   10.4838 C.3     1  UNL1        0.1276
     22 C          61.3987   87.1411    9.0319 C.ar    1  UNL1        0.0064
     23 C          62.6898   86.3829    8.9403 C.ar    1  UNL1        0.0004
     24 C          62.8326   85.2612    7.9548 C.ar    1  UNL1        0.0294
     25 C          61.6842   84.8975    7.0609 C.ar    1  UNL1        0.1401
     26 F          61.8270   83.7757    6.0753 F       1  UNL1       -0.2042
     27 C          60.3932   85.6556    7.1524 C.ar    1  UNL1        0.0294
     28 C          60.2505   86.7774    8.1379 C.ar    1  UNL1        0.0004
@<TRIPOS>BOND
     1     1     2    1
     2     2     3   ar
     3     3    16    1
     4    16    17    1
     5    17    18    1
     6    18    19    1
     7    19    20    1
     8    20    22    1
     9    22    23   ar
    10    23    24   ar
    11    24    25   ar
    12    25    26    1
    13    25    27   ar
    14    27    28   ar
    15    20    21    1
    16     3     4   ar
    17     4     5   ar
    18     5     9    1
    19     9    10   ar
    20    10    11   ar
    21    11    12   ar
    22    12    13   ar
    23    13    14   ar
    24    14    15    1
    25     5     6   ar
    26     6     7   ar
    27     7     8    2
    28     7     2   ar
    29    21    16    1
    30    14     9   ar
    31    28    22   ar
@<TRIPOS>MOLECULE
*****
 28 31 0 0 0
SMALL
GASTEIGER

@<TRIPOS>ATOM
      1 C          63.5060   90.0666   14.7992 C.3     1  UNL1        0.1363
      2 N          64.1687   90.9566   13.7899 N.ar    1  UNL1       -0.2667
      3 C          63.7939   90.8565   12.3409 C.ar    1  UNL1        0.2036
      4 N          64.4566   91.7464   11.3316 N.ar    1  UNL1       -0.2147
      5 C          65.4940   92.7365   11.7712 C.ar    1  UNL1        0.0911
      6 C          65.8688   92.8367   13.2201 C.ar    1  UNL1        0.0801
      7 C          65.2061   91.9467   14.2294 C.ar    1  UNL1        0.2645
      8 O          65.5810   92.0469   15.6784 O.2     1  UNL1       -0.2668
      9 C          66.1567   93.6265   10.7618 C.ar    1  UNL1        0.0485
     10 C          65.7099   95.0502   10.6092 C.ar    1  UNL1        0.0244
     11 C          66.3726   95.9402    9.5999 C.ar    1  UNL1        0.0991
     12 N          67.4821   95.4065    8.7431 N.ar    1  UNL1       -0.2400
     13 C          67.9289   93.9827    8.8957 C.ar    1  UNL1        0.1285
     14 C          67.2662   93.0928    9.9050 C.ar    1  UNL1        0.1606
     15 F          67.7131   91.6690   10.0576 F       1  UNL1       -0.2025
     16 N          62.7563   89.8663   11.9013 N.pl3   1  UNL1       -0.2740
     17 C          61.3395   90.3098   11.6872 C.3     1  UNL1        0.1257
     18 C          60.3020   89.3197   11.2475 C.3     1  UNL1        0.1640
     19 O          60.6813   87.8861   11.0220 O.3     1  UNL1       -0.3483
     20 C          62.0983   87.4426   11.2361 C.3     1  UNL1        0.1572
     21 C          63.1357   88.4327   11.6757 C.3     1  UNL1        0.1276
     22 C          62.4776   86.0090   11.0106 C.ar    1  UNL1        0.0064
     23 C          62.5285   85.0557   12.1676 C.ar    1  UNL1        0.0004
     24 C          62.9078   83.6221   11.9421 C.ar    1  UNL1        0.0294
     25 C          63.2364   83.1418   10.5595 C.ar    1  UNL1        0.1401
     26 F          63.6158   81.7082   10.3340 F       1  UNL1       -0.2042
     27 C          63.1855   84.0951    9.4026 C.ar    1  UNL1        0.0294
     28 C          62.8062   85.5287    9.6281 C.ar    1  UNL1        0.0004
@<TRIPOS>BOND
     1     1     2    1
     2     2     3   ar
     3     3    16    1
     4    16    17    1
     5    17    18    1
     6    18    19    1
     7    19    20    1
     8    20    22    1
     9    22    23   ar
    10    23    24   ar
    11    24    25   ar
    12    25    26    1
    13    25    27   ar
    14    27    28   ar
    15    20    21    1
    16     3     4   ar
    17     4     5   ar
    18     5     9    1
    19     9    10   ar
    20    10    11   ar
    21    11    12   ar
    22    12    13   ar
    23    13    14   ar
    24    14    15    1
    25     5     6   ar
    26     6     7   ar
    27     7     8    2
    28     7     2   ar
    29    21    16    1
    30    14     9   ar
    31    28    22   ar
@<TRIPOS>MOLECULE
*****
 28 31 0 0 0
SMALL
GASTEIGER

@<TRIPOS>ATOM
      1 C          61.2187   90.4515   10.8133 C.3     1  UNL1        0.1363
      2 N          61.6223   89.0395   11.1191 N.ar    1  UNL1       -0.2667
      3 C          62.7739   88.7719   12.0422 C.ar    1  UNL1        0.2036
      4 N          63.1775   87.3600   12.3481 N.ar    1  UNL1       -0.2147
      5 C          62.4296   86.2157   11.7308 C.ar    1  UNL1        0.0911
      6 C          61.2780   86.4833   10.8076 C.ar    1  UNL1        0.0801
      7 C          60.8744   87.8952   10.5018 C.ar    1  UNL1        0.2645
      8 O          59.7227   88.1628    9.5786 O.2     1  UNL1       -0.2668
      9 C          62.8332   84.8037   12.0366 C.ar    1  UNL1        0.0485
     10 C          62.6864   84.2667   13.4294 C.ar    1  UNL1        0.0244
     11 C          63.0900   82.8548   13.7352 C.ar    1  UNL1        0.0991
     12 N          63.6405   81.9799   12.6482 N.ar    1  UNL1       -0.2400
     13 C          63.7873   82.5169   11.2554 C.ar    1  UNL1        0.1285
     14 C          63.3836   83.9289   10.9496 C.ar    1  UNL1        0.1606
     15 F          63.5305   84.4659    9.5567 F       1  UNL1       -0.2025
     16 N          63.5219   89.9163   12.6596 N.pl3   1  UNL1       -0.2740
     17 C          63.5089   90.1051   14.1476 C.3     1  UNL1        0.1257
     18 C          64.2569   91.2494   14.7649 C.3     1  UNL1        0.1640
     19 O          65.0179   92.2049   13.8942 O.3     1  UNL1       -0.3483
     20 C          65.0308   92.0160   12.4062 C.3     1  UNL1        0.1572
     21 C          64.2828   90.8717   11.7889 C.3     1  UNL1        0.1276
     22 C          65.7917   92.9714   11.5355 C.ar    1  UNL1        0.0064
     23 C          66.5510   92.4609   10.3468 C.ar    1  UNL1        0.0004
     24 C          67.3120   93.4163    9.4761 C.ar    1  UNL1        0.0294
     25 C          67.3136   94.8823    9.7941 C.ar    1  UNL1        0.1401
     26 F          68.0746   95.8377    8.9234 F       1  UNL1       -0.2042
     27 C          66.5544   95.3927   10.9828 C.ar    1  UNL1        0.0294
     28 C          65.7934   94.4373   11.8534 C.ar    1  UNL1        0.0004
@<TRIPOS>BOND
     1     1     2    1
     2     2     3   ar
     3     3    16    1
     4    16    17    1
     5    17    18    1
     6    18    19    1
     7    19    20    1
     8    20    22    1
     9    22    23   ar
    10    23    24   ar
    11    24    25   ar
    12    25    26    1
    13    25    27   ar
    14    27    28   ar
    15    20    21    1
    16     3     4   ar
    17     4     5   ar
    18     5     9    1
    19     9    10   ar
    20    10    11   ar
    21    11    12   ar
    22    12    13   ar
    23    13    14   ar
    24    14    15    1
    25     5     6   ar
    26     6     7   ar
    27     7     8    2
    28     7     2   ar
    29    21    16    1
    30    14     9   ar
    31    28    22   ar
@<TRIPOS>MOLECULE
*****
 28 31 0 0 0
SMALL
GASTEIGER

@<TRIPOS>ATOM
      1 C          59.7828   87.9995    9.8740 C.3     1  UNL1        0.1363
      2 N          60.8156   88.7528   10.6589 N.ar    1  UNL1       -0.2667
      3 C          62.1565   88.1340   10.9216 C.ar    1  UNL1        0.2036
      4 N          63.1893   88.8872   11.7065 N.ar    1  UNL1       -0.2147
      5 C          62.8812   90.2592   12.2285 C.ar    1  UNL1        0.0911
      6 C          61.5403   90.8780   11.9657 C.ar    1  UNL1        0.0801
      7 C          60.5075   90.1248   11.1809 C.ar    1  UNL1        0.2645
      8 O          59.1666   90.7436   10.9181 O.2     1  UNL1       -0.2668
      9 C          63.9140   91.0125   13.0134 C.ar    1  UNL1        0.0485
     10 C          64.0437   90.7888   14.4909 C.ar    1  UNL1        0.0244
     11 C          65.0765   91.5420   15.2757 C.ar    1  UNL1        0.0991
     12 N          65.9796   92.5190   14.5830 N.ar    1  UNL1       -0.2400
     13 C          65.8499   92.7427   13.1055 C.ar    1  UNL1        0.1285
     14 C          64.8172   91.9894   12.3207 C.ar    1  UNL1        0.1606
     15 F          64.6875   92.2132   10.8431 F       1  UNL1       -0.2025
     16 N          62.4647   86.7619   10.3996 N.pl3   1  UNL1       -0.2740
     17 C          62.7678   86.5639    8.9440 C.3     1  UNL1        0.1257
     18 C          63.0759   85.1918    8.4219 C.3     1  UNL1        0.1640
     19 O          63.0809   84.0177    9.3555 O.3     1  UNL1       -0.3483
     20 C          62.7778   84.2158   10.8112 C.3     1  UNL1        0.1572
     21 C          62.4697   85.5879   11.3332 C.3     1  UNL1        0.1276
     22 C          62.7828   83.0418   11.7448 C.ar    1  UNL1        0.0064
     23 C          62.6430   83.2581   13.2226 C.ar    1  UNL1        0.0004
     24 C          62.6480   82.0841   14.1562 C.ar    1  UNL1        0.0294
     25 C          62.7929   80.6938   13.6121 C.ar    1  UNL1        0.1401
     26 F          62.7979   79.5198   14.5457 F       1  UNL1       -0.2042
     27 C          62.9327   80.4775   12.1344 C.ar    1  UNL1        0.0294
     28 C          62.9277   81.6515   11.2008 C.ar    1  UNL1        0.0004
@<TRIPOS>BOND
     1     1     2    1
     2     2     3   ar
     3     3    16    1
     4    16    17    1
     5    17    18    1
     6    18    19    1
     7    19    20    1
     8    20    22    1
     9    22    23   ar
    10    23    24   ar
    11    24    25   ar
    12    25    26    1
    13    25    27   ar
    14    27    28   ar
    15    20    21    1
    16     3     4   ar
    17     4     5   ar
    18     5     9    1
    19     9    10   ar
    20    10    11   ar
    21    11    12   ar
    22    12    13   ar
    23    13    14   ar
    24    14    15    1
    25     5     6   ar
    26     6     7   ar
    27     7     8    2
    28     7     2   ar
    29    21    16    1
    30    14     9   ar
    31    28    22   ar
@<TRIPOS>MOLECULE
*****
 28 31 0 0 0
SMALL
GASTEIGER

@<TRIPOS>ATOM
      1 C          63.1640   88.8622   17.0849 C.3     1  UNL1        0.1363
      2 N          63.1748   87.5447   16.3680 N.ar    1  UNL1       -0.2667
      3 C          63.5553   87.4826   14.9184 C.ar    1  UNL1        0.2036
      4 N          63.5660   86.1651   14.2016 N.ar    1  UNL1       -0.2147
      5 C          63.1962   84.9095   14.9342 C.ar    1  UNL1        0.0911
      6 C          62.8156   84.9716   16.3838 C.ar    1  UNL1        0.0801
      7 C          62.8049   86.2892   17.1007 C.ar    1  UNL1        0.2645
      8 O          62.4243   86.3512   18.5503 O.2     1  UNL1       -0.2668
      9 C          63.2069   83.5920   14.2173 C.ar    1  UNL1        0.0485
     10 C          62.0946   82.6098   14.4366 C.ar    1  UNL1        0.0244
     11 C          62.1054   81.2922   13.7197 C.ar    1  UNL1        0.0991
     12 N          63.2284   80.9569   12.7836 N.ar    1  UNL1       -0.2400
     13 C          64.3406   81.9391   12.5643 C.ar    1  UNL1        0.1285
     14 C          64.3299   83.2566   13.2812 C.ar    1  UNL1        0.1606
     15 F          65.4423   84.2388   13.0619 F       1  UNL1       -0.2025
     16 N          63.9252   88.7382   14.1857 N.pl3   1  UNL1       -0.2740
     17 C          63.1712   89.1361   12.9516 C.3     1  UNL1        0.1257
     18 C          63.5410   90.3916   12.2188 C.3     1  UNL1        0.1640
     19 O          64.6649   91.2492   12.7202 O.3     1  UNL1       -0.3483
     20 C          65.4190   90.8512   13.9544 C.3     1  UNL1        0.1572
     21 C          65.0491   89.5957   14.6871 C.3     1  UNL1        0.1276
     22 C          66.5428   91.7088   14.4558 C.ar    1  UNL1        0.0064
     23 C          67.8562   91.7230   13.7313 C.ar    1  UNL1        0.0004
     24 C          68.9801   92.5806   14.2328 C.ar    1  UNL1        0.0294
     25 C          68.7906   93.4240   15.4587 C.ar    1  UNL1        0.1401
     26 F          69.9145   94.2816   15.9601 F       1  UNL1       -0.2042
     27 C          67.4773   93.4097   16.1832 C.ar    1  UNL1        0.0294
     28 C          66.3534   92.5522   15.6817 C.ar    1  UNL1        0.0004
@<TRIPOS>BOND
     1     1     2    1
     2     2     3   ar
     3     3    16    1
     4    16    17    1
     5    17    18    1
     6    18    19    1
     7    19    20    1
     8    20    22    1
     9    22    23   ar
    10    23    24   ar
    11    24    25   ar
    12    25    26    1
    13    25    27   ar
    14    27    28   ar
    15    20    21    1
    16     3     4   ar
    17     4     5   ar
    18     5     9    1
    19     9    10   ar
    20    10    11   ar
    21    11    12   ar
    22    12    13   ar
    23    13    14   ar
    24    14    15    1
    25     5     6   ar
    26     6     7   ar
    27     7     8    2
    28     7     2   ar
    29    21    16    1
    30    14     9   ar
    31    28    22   ar
@<TRIPOS>MOLECULE
*****
 28 31 0 0 0
SMALL
GASTEIGER

@<TRIPOS>ATOM
      1 C          61.6673   87.1662   11.3549 C.3     1  UNL1        0.1363
      2 N          62.5183   88.3291   11.7715 N.ar    1  UNL1       -0.2667
      3 C          63.5113   88.1711   12.8845 C.ar    1  UNL1        0.2036
      4 N          64.3623   89.3340   13.3011 N.ar    1  UNL1       -0.2147
      5 C          64.2203   90.6549   12.6047 C.ar    1  UNL1        0.0911
      6 C          63.2273   90.8129   11.4916 C.ar    1  UNL1        0.0801
      7 C          62.3763   89.6500   11.0750 C.ar    1  UNL1        0.2645
      8 O          61.3833   89.8080    9.9619 O.2     1  UNL1       -0.2668
      9 C          65.0713   91.8177   13.0213 C.ar    1  UNL1        0.0485
     10 C          65.5386   91.9343   14.4418 C.ar    1  UNL1        0.0244
     11 C          66.3896   93.0971   14.8584 C.ar    1  UNL1        0.0991
     12 N          66.7732   94.1435   13.8545 N.ar    1  UNL1       -0.2400
     13 C          66.3059   94.0270   12.4340 C.ar    1  UNL1        0.1285
     14 C          65.4549   92.8641   12.0174 C.ar    1  UNL1        0.1606
     15 F          64.9875   92.7476   10.5967 F       1  UNL1       -0.2025
     16 N          63.6534   86.8502   13.5811 N.pl3   1  UNL1       -0.2740
     17 C          64.0117   86.8047   15.0369 C.3     1  UNL1        0.1257
     18 C          64.1537   85.4838   15.7334 C.3     1  UNL1        0.1640
     19 O          63.9375   84.2084   14.9740 O.3     1  UNL1       -0.3483
     20 C          63.5792   84.2540   13.5181 C.3     1  UNL1        0.1572
     21 C          63.4371   85.5748   12.8217 C.3     1  UNL1        0.1276
     22 C          63.3629   82.9786   12.7587 C.ar    1  UNL1        0.0064
     23 C          62.8292   81.7671   13.4640 C.ar    1  UNL1        0.0004
     24 C          62.6129   80.4917   12.7046 C.ar    1  UNL1        0.0294
     25 C          62.9304   80.4279   11.2399 C.ar    1  UNL1        0.1401
     26 F          62.7141   79.1525   10.4805 F       1  UNL1       -0.2042
     27 C          63.4641   81.6394   10.5347 C.ar    1  UNL1        0.0294
     28 C          63.6803   82.9147   11.2941 C.ar    1  UNL1        0.0004
@<TRIPOS>BOND
     1     1     2    1
     2     2     3   ar
     3     3    16    1
     4    16    17    1
     5    17    18    1
     6    18    19    1
     7    19    20    1
     8    20    22    1
     9    22    23   ar
    10    23    24   ar
    11    24    25   ar
    12    25    26    1
    13    25    27   ar
    14    27    28   ar
    15    20    21    1
    16     3     4   ar
    17     4     5   ar
    18     5     9    1
    19     9    10   ar
    20    10    11   ar
    21    11    12   ar
    22    12    13   ar
    23    13    14   ar
    24    14    15    1
    25     5     6   ar
    26     6     7   ar
    27     7     8    2
    28     7     2   ar
    29    21    16    1
    30    14     9   ar
    31    28    22   ar
@<TRIPOS>MOLECULE
*****
 28 31 0 0 0
SMALL
GASTEIGER

@<TRIPOS>ATOM
      1 C          64.0600   90.2045   15.9552 C.3     1  UNL1        0.1363
      2 N          64.6499   91.0606   14.8740 N.ar    1  UNL1       -0.2667
      3 C          64.5978   90.6065   13.4454 C.ar    1  UNL1        0.2036
      4 N          65.1877   91.4626   12.3641 N.ar    1  UNL1       -0.2147
      5 C          65.8297   92.7730   12.7115 C.ar    1  UNL1        0.0911
      6 C          65.8818   93.2272   14.1401 C.ar    1  UNL1        0.0801
      7 C          65.2919   92.3710   15.2213 C.ar    1  UNL1        0.2645
      8 O          65.3441   92.8253   16.6500 O.2     1  UNL1       -0.2668
      9 C          66.4196   93.6291   11.6303 C.ar    1  UNL1        0.0485
     10 C          66.0574   95.0821   11.5428 C.ar    1  UNL1        0.0244
     11 C          66.6473   95.9383   10.4616 C.ar    1  UNL1        0.0991
     12 N          67.5993   95.3415    9.4679 N.ar    1  UNL1       -0.2400
     13 C          67.9615   93.8885    9.5554 C.ar    1  UNL1        0.1285
     14 C          67.3716   93.0323   10.6366 C.ar    1  UNL1        0.1606
     15 F          67.7338   91.5793   10.7241 F       1  UNL1       -0.2025
     16 N          63.9557   89.2960   13.0979 N.pl3   1  UNL1       -0.2740
     17 C          64.2227   88.0835   13.9396 C.3     1  UNL1        0.1257
     18 C          63.5806   86.7731   13.5921 C.3     1  UNL1        0.1640
     19 O          62.6716   86.6753   12.4030 O.3     1  UNL1       -0.3483
     20 C          62.4047   87.8879   11.5613 C.3     1  UNL1        0.1572
     21 C          63.0467   89.1982   11.9087 C.3     1  UNL1        0.1276
     22 C          61.4957   87.7901   10.3721 C.ar    1  UNL1        0.0064
     23 C          60.9582   89.0369    9.7343 C.ar    1  UNL1        0.0004
     24 C          60.0492   88.9391    8.5452 C.ar    1  UNL1        0.0294
     25 C          59.6776   87.5944    7.9937 C.ar    1  UNL1        0.1401
     26 F          58.7686   87.4966    6.8046 F       1  UNL1       -0.2042
     27 C          60.2151   86.3477    8.6315 C.ar    1  UNL1        0.0294
     28 C          61.1241   86.4455    9.8206 C.ar    1  UNL1        0.0004
@<TRIPOS>BOND
     1     1     2    1
     2     2     3   ar
     3     3    16    1
     4    16    17    1
     5    17    18    1
     6    18    19    1
     7    19    20    1
     8    20    22    1
     9    22    23   ar
    10    23    24   ar
    11    24    25   ar
    12    25    26    1
    13    25    27   ar
    14    27    28   ar
    15    20    21    1
    16     3     4   ar
    17     4     5   ar
    18     5     9    1
    19     9    10   ar
    20    10    11   ar
    21    11    12   ar
    22    12    13   ar
    23    13    14   ar
    24    14    15    1
    25     5     6   ar
    26     6     7   ar
    27     7     8    2
    28     7     2   ar
    29    21    16    1
    30    14     9   ar
    31    28    22   ar
