@<TRIPOS>MOLECULE
*****
 40 44 0 0 0
SMALL
GASTEIGER

@<TRIPOS>ATOM
      1 C          62.9755   88.9438   12.2085 C.3     1  UNL1        0.1631
      2 N          63.8587   89.9690   12.8556 N.ar    1  UNL1       -0.3048
      3 C          64.2726   89.9924   14.2972 C.ar    1  UNL1        0.1441
      4 N          65.1529   91.1886   14.5073 N.ar    1  UNL1       -0.2268
      5 C          65.2829   91.9045   13.1956 C.ar    1  UNL1        0.0987
      6 C          66.0264   93.1454   12.7988 C.ar    1  UNL1        0.0206
      7 C          65.9700   93.6326   11.3812 C.ar    1  UNL1        0.0016
      8 C          65.1702   92.8788   10.3604 C.ar    1  UNL1        0.0016
      9 C          64.4267   91.6379   10.7572 C.ar    1  UNL1        0.0188
     10 C          64.4831   91.1508   12.1748 C.ar    1  UNL1        0.0792
     11 C          63.8760   88.9947   15.3446 C.ar    1  UNL1        0.0342
     12 C          64.2924   87.5600   15.2098 C.ar    1  UNL1        0.0039
     13 C          63.8957   86.5623   16.2573 C.ar    1  UNL1        0.0115
     14 C          63.0827   86.9992   17.4395 C.ar    1  UNL1        0.0577
     15 CL         62.6860   86.0015   18.4870 Cl      1  UNL1       -0.0822
     16 C          62.6662   88.4339   17.5744 C.ar    1  UNL1        0.0115
     17 C          63.0629   89.4317   16.5270 C.ar    1  UNL1        0.0039
     18 C          61.8583   89.3781   11.3067 C.3     1  UNL1        0.0297
     19 C          60.7182   90.1817   11.8586 C.3     1  UNL1        0.0024
     20 C          59.6009   90.6160   10.9569 C.3     1  UNL1        0.0001
     21 C          59.6237   90.2467    9.5033 C.3     1  UNL1        0.0000
     22 C          60.7637   89.4432    8.9514 C.3     1  UNL1        0.0001
     23 C          61.8810   89.0088    9.8531 C.3     1  UNL1        0.0024
     24 N          62.1614   86.4795   12.0856 N.am    1  UNL1       -0.2824
     25 C          63.2094   87.4841   12.4631 C.2     1  UNL1        0.2468
     26 O          64.4246   86.8591   13.0818 O.2     1  UNL1       -0.2727
     27 H          61.3200   86.7781   11.6708 H       1  UNL1        0.1549
     28 C          62.8634   82.1008   12.8498 C.ar    1  UNL1        0.0140
     29 C          62.4756   83.0067   13.9806 C.ar    1  UNL1        0.0024
     30 C          62.2416   84.4664   13.7259 C.ar    1  UNL1        0.0147
     31 C          62.3954   85.0200   12.3403 C.ar    1  UNL1        0.0542
     32 C          62.7832   84.1140   11.2094 C.ar    1  UNL1        0.0849
     33 C          63.0172   82.6545   11.4642 C.ar    1  UNL1        0.0062
     34 C          62.9371   84.6676    9.8239 C.3     1  UNL1        0.4197
     35 F          63.0909   85.2212    8.4383 F       1  UNL1       -0.1658
     36 F          61.5911   85.3203    9.9352 F       1  UNL1       -0.1658
     37 F          64.2543   83.9523    9.8823 F       1  UNL1       -0.1658
     38 O          62.7010   79.6268   12.0730 O.co2   1  UNL1       -0.5446
     39 C          63.0974   80.6412   13.1044 C.2     1  UNL1        0.0729
     40 O          63.7280   80.1960   14.3906 O.co2   1  UNL1       -0.5446
@<TRIPOS>UNITY_ATOM_ATTR
38 1
charge -1
@<TRIPOS>BOND
     1    38    39   ar
     2    39    40   ar
     3    39    28    1
     4    28    29   ar
     5    29    30   ar
     6    30    31   ar
     7    31    24    1
     8    24    25   am
     9    25    26    2
    10    25     1    1
    11     1    18    1
    12    18    19    1
    13    19    20    1
    14    20    21    1
    15    21    22    1
    16    22    23    1
    17     1     2    1
    18     2     3   ar
    19     3    11    1
    20    11    12   ar
    21    12    13   ar
    22    13    14   ar
    23    14    15    1
    24    14    16   ar
    25    16    17   ar
    26     3     4   ar
    27     4     5   ar
    28     5     6   ar
    29     6     7   ar
    30     7     8   ar
    31     8     9   ar
    32     9    10   ar
    33    31    32   ar
    34    32    34    1
    35    34    35    1
    36    34    36    1
    37    34    37    1
    38    32    33   ar
    39    33    28   ar
    40    23    18    1
    41    10     2   ar
    42    17    11   ar
    43    10     5   ar
    44    24    27    1
@<TRIPOS>MOLECULE
*****
 40 44 0 0 0
SMALL
GASTEIGER

@<TRIPOS>ATOM
      1 C          62.8958   85.5981   11.3119 C.3     1  UNL1        0.1631
      2 N          63.2303   86.1119   12.6809 N.ar    1  UNL1       -0.3048
      3 C          63.3704   85.2835   13.9236 C.ar    1  UNL1        0.1441
      4 N          63.7102   86.2039   15.0583 N.ar    1  UNL1       -0.2268
      5 C          63.7800   87.6010   14.5169 C.ar    1  UNL1        0.0987
      6 C          64.0753   88.9177   15.1720 C.ar    1  UNL1        0.0206
      7 C          64.0741   90.1775   14.3578 C.ar    1  UNL1        0.0016
      8 C          63.7775   90.1206   12.8885 C.ar    1  UNL1        0.0016
      9 C          63.4822   88.8040   12.2334 C.ar    1  UNL1        0.0188
     10 C          63.4835   87.5442   13.0476 C.ar    1  UNL1        0.0792
     11 C          63.2006   83.7960   14.0154 C.ar    1  UNL1        0.0342
     12 C          64.3666   82.8903   13.7505 C.ar    1  UNL1        0.0039
     13 C          64.1968   81.4028   13.8423 C.ar    1  UNL1        0.0115
     14 C          62.8611   80.8210   14.1990 C.ar    1  UNL1        0.0577
     15 CL         62.6914   79.3334   14.2908 Cl      1  UNL1       -0.0822
     16 C          61.6952   81.7267   14.4640 C.ar    1  UNL1        0.0115
     17 C          61.8649   83.2142   14.3722 C.ar    1  UNL1        0.0039
     18 C          63.1228   84.1538   10.9767 C.3     1  UNL1        0.0297
     19 C          62.0281   83.1520   11.1957 C.3     1  UNL1        0.0024
     20 C          62.2550   81.7076   10.8605 C.3     1  UNL1        0.0001
     21 C          63.5768   81.2651   10.3062 C.3     1  UNL1        0.0000
     22 C          64.6715   82.2669   10.0872 C.3     1  UNL1        0.0001
     23 C          64.4445   83.7112   10.4224 C.3     1  UNL1        0.0024
     24 N          60.8490   86.6808   10.1336 N.am    1  UNL1       -0.2824
     25 C          62.3343   86.5287   10.2781 C.2     1  UNL1        0.2468
     26 O          63.1071   87.3775    9.3125 O.2     1  UNL1       -0.2727
     27 H          60.2427   86.1699   10.7172 H       1  UNL1        0.1549
     28 C          59.1646   89.4724    7.0320 C.ar    1  UNL1        0.0140
     29 C          59.3834   88.0262    6.6996 C.ar    1  UNL1        0.0024
     30 C          59.9449   87.0956    7.7335 C.ar    1  UNL1        0.0147
     31 C          60.2875   87.6113    9.0998 C.ar    1  UNL1        0.0542
     32 C          60.0687   89.0576    9.4321 C.ar    1  UNL1        0.0849
     33 C          59.5072   89.9881    8.3983 C.ar    1  UNL1        0.0062
     34 C          60.4113   89.5733   10.7984 C.3     1  UNL1        0.4197
     35 F          60.7539   90.0891   12.1646 F       1  UNL1       -0.1658
     36 F          59.2552   88.8117   11.3758 F       1  UNL1       -0.1658
     37 F          61.5170   90.2664   10.0587 F       1  UNL1       -0.1658
     38 O          59.5259   91.2330    5.1559 O.co2   1  UNL1       -0.5446
     39 C          58.6031   90.4030    5.9982 C.2     1  UNL1        0.0729
     40 O          57.1188   90.5034    5.8067 O.co2   1  UNL1       -0.5446
@<TRIPOS>UNITY_ATOM_ATTR
38 1
charge -1
@<TRIPOS>BOND
     1    38    39   ar
     2    39    40   ar
     3    39    28    1
     4    28    29   ar
     5    29    30   ar
     6    30    31   ar
     7    31    24    1
     8    24    25   am
     9    25    26    2
    10    25     1    1
    11     1    18    1
    12    18    19    1
    13    19    20    1
    14    20    21    1
    15    21    22    1
    16    22    23    1
    17     1     2    1
    18     2     3   ar
    19     3    11    1
    20    11    12   ar
    21    12    13   ar
    22    13    14   ar
    23    14    15    1
    24    14    16   ar
    25    16    17   ar
    26     3     4   ar
    27     4     5   ar
    28     5     6   ar
    29     6     7   ar
    30     7     8   ar
    31     8     9   ar
    32     9    10   ar
    33    31    32   ar
    34    32    34    1
    35    34    35    1
    36    34    36    1
    37    34    37    1
    38    32    33   ar
    39    33    28   ar
    40    23    18    1
    41    10     2   ar
    42    17    11   ar
    43    10     5   ar
    44    24    27    1
@<TRIPOS>MOLECULE
*****
 40 44 0 0 0
SMALL
GASTEIGER

@<TRIPOS>ATOM
      1 C          62.9078   85.9889   11.3397 C.3     1  UNL1        0.1631
      2 N          63.2801   86.5298   12.6883 N.ar    1  UNL1       -0.3048
      3 C          63.4894   85.7224   13.9350 C.ar    1  UNL1        0.1441
      4 N          63.8471   86.6666   15.0443 N.ar    1  UNL1       -0.2268
      5 C          63.8589   88.0577   14.4831 C.ar    1  UNL1        0.0987
      6 C          64.1435   89.3904   15.1098 C.ar    1  UNL1        0.0206
      7 C          64.0777   90.6386   14.2805 C.ar    1  UNL1        0.0016
      8 C          63.7273   90.5540   12.8245 C.ar    1  UNL1        0.0016
      9 C          63.4427   89.2213   12.1977 C.ar    1  UNL1        0.0188
     10 C          63.5085   87.9731   13.0270 C.ar    1  UNL1        0.0792
     11 C          63.3630   84.2323   14.0519 C.ar    1  UNL1        0.0342
     12 C          64.5430   83.3542   13.7575 C.ar    1  UNL1        0.0039
     13 C          64.4167   81.8641   13.8744 C.ar    1  UNL1        0.0115
     14 C          63.1105   81.2522   14.2857 C.ar    1  UNL1        0.0577
     15 CL         62.9842   79.7620   14.4026 Cl      1  UNL1       -0.0822
     16 C          61.9306   82.1302   14.5801 C.ar    1  UNL1        0.0115
     17 C          62.0568   83.6203   14.4633 C.ar    1  UNL1        0.0039
     18 C          63.0995   84.5325   11.0367 C.3     1  UNL1        0.0297
     19 C          61.9917   83.5579   11.3072 C.3     1  UNL1        0.0024
     20 C          62.1833   82.1014   11.0043 C.3     1  UNL1        0.0001
     21 C          63.4828   81.6194   10.4307 C.3     1  UNL1        0.0000
     22 C          64.5906   82.5938   10.1602 C.3     1  UNL1        0.0001
     23 C          64.3990   84.0503   10.4632 C.3     1  UNL1        0.0024
     24 N          60.8615   86.9678   10.0729 N.am    1  UNL1       -0.2824
     25 C          62.3438   86.9046   10.2939 C.2     1  UNL1        0.2468
     26 O          63.1112   87.8196    9.3862 O.2     1  UNL1       -0.2727
     27 H          60.2588   86.4083   10.6142 H       1  UNL1        0.1549
     28 C          59.1696   89.7149    6.9359 C.ar    1  UNL1        0.0140
     29 C          59.5566   90.2586    8.2792 C.ar    1  UNL1        0.0024
     30 C          60.1206   89.3429    9.3249 C.ar    1  UNL1        0.0147
     31 C          60.2975   87.8834    9.0272 C.ar    1  UNL1        0.0542
     32 C          59.9105   87.3396    7.6839 C.ar    1  UNL1        0.0849
     33 C          59.3466   88.2553    6.6383 C.ar    1  UNL1        0.0062
     34 C          60.0875   85.8801    7.3862 C.3     1  UNL1        0.4197
     35 F          60.2645   84.4207    7.0886 F       1  UNL1       -0.1658
     36 F          61.5744   86.0711    7.3342 F       1  UNL1       -0.1658
     37 F          58.5901   85.8686    7.4742 F       1  UNL1       -0.1658
     38 O          59.5254   91.4653    5.0492 O.co2   1  UNL1       -0.5446
     39 C          58.6056   90.6305    5.8902 C.2     1  UNL1        0.0729
     40 O          57.1219   90.7113    5.6854 O.co2   1  UNL1       -0.5446
@<TRIPOS>UNITY_ATOM_ATTR
38 1
charge -1
@<TRIPOS>BOND
     1    38    39   ar
     2    39    40   ar
     3    39    28    1
     4    28    29   ar
     5    29    30   ar
     6    30    31   ar
     7    31    24    1
     8    24    25   am
     9    25    26    2
    10    25     1    1
    11     1    18    1
    12    18    19    1
    13    19    20    1
    14    20    21    1
    15    21    22    1
    16    22    23    1
    17     1     2    1
    18     2     3   ar
    19     3    11    1
    20    11    12   ar
    21    12    13   ar
    22    13    14   ar
    23    14    15    1
    24    14    16   ar
    25    16    17   ar
    26     3     4   ar
    27     4     5   ar
    28     5     6   ar
    29     6     7   ar
    30     7     8   ar
    31     8     9   ar
    32     9    10   ar
    33    31    32   ar
    34    32    34    1
    35    34    35    1
    36    34    36    1
    37    34    37    1
    38    32    33   ar
    39    33    28   ar
    40    23    18    1
    41    10     2   ar
    42    17    11   ar
    43    10     5   ar
    44    24    27    1
@<TRIPOS>MOLECULE
*****
 40 44 0 0 0
SMALL
GASTEIGER

@<TRIPOS>ATOM
      1 C          63.4126   89.0956   13.0857 C.3     1  UNL1        0.1631
      2 N          63.6971   90.1377   12.0450 N.ar    1  UNL1       -0.3048
      3 C          63.0306   90.2515   10.7060 C.ar    1  UNL1        0.1441
      4 N          63.6196   91.4332    9.9941 N.ar    1  UNL1       -0.2268
      5 C          64.6500   92.0496   10.8931 C.ar    1  UNL1        0.0987
      6 C          65.5509   93.2366   10.7213 C.ar    1  UNL1        0.0206
      7 C          66.4996   93.6229   11.8171 C.ar    1  UNL1        0.0016
      8 C          66.5475   92.8223   13.0846 C.ar    1  UNL1        0.0016
      9 C          65.6466   91.6353   13.2564 C.ar    1  UNL1        0.0188
     10 C          64.6979   91.2490   12.1607 C.ar    1  UNL1        0.0792
     11 C          61.9628   89.3432   10.1726 C.ar    1  UNL1        0.0342
     12 C          60.5221   89.6096   10.4942 C.ar    1  UNL1        0.0039
     13 C          59.4542   88.7012    9.9608 C.ar    1  UNL1        0.0115
     14 C          59.8270   87.5265    9.1059 C.ar    1  UNL1        0.0577
     15 CL         58.7590   86.6182    8.5724 Cl      1  UNL1       -0.0822
     16 C          61.2677   87.2602    8.7842 C.ar    1  UNL1        0.0115
     17 C          62.3356   88.1684    9.3176 C.ar    1  UNL1        0.0039
     18 C          63.4083   89.4680   14.5386 C.3     1  UNL1        0.0297
     19 C          63.6325   90.8936   14.9481 C.3     1  UNL1        0.0024
     20 C          63.6283   91.2661   16.4011 C.3     1  UNL1        0.0001
     21 C          63.3998   90.2130   17.4447 C.3     1  UNL1        0.0000
     22 C          63.1757   88.7875   17.0352 C.3     1  UNL1        0.0001
     23 C          63.1799   88.4150   15.5822 C.3     1  UNL1        0.0024
     24 N          63.9038   86.5526   13.2913 N.am    1  UNL1       -0.2824
     25 C          63.1323   87.6808   12.6733 C.2     1  UNL1        0.2468
     26 O          62.1229   87.2174   11.6650 O.2     1  UNL1       -0.2727
     27 H          64.5941   86.7406   13.9676 H       1  UNL1        0.1549
     28 C          63.0629   82.3085   12.0539 C.ar    1  UNL1        0.0140
     29 C          63.5328   83.3069   11.0379 C.ar    1  UNL1        0.0024
     30 C          63.8131   84.7217   11.4504 C.ar    1  UNL1        0.0147
     31 C          63.6235   85.1379   12.8789 C.ar    1  UNL1        0.0542
     32 C          63.1536   84.1395   13.8950 C.ar    1  UNL1        0.0849
     33 C          62.8734   82.7249   13.4825 C.ar    1  UNL1        0.0062
     34 C          62.9641   84.5558   15.3236 C.3     1  UNL1        0.4197
     35 F          62.7745   84.9720   16.7521 F       1  UNL1       -0.1658
     36 F          64.4507   84.5476   15.5232 F       1  UNL1       -0.1658
     37 F          61.5116   84.5131   14.9512 F       1  UNL1       -0.1658
     38 O          62.3875   79.8768   12.6708 O.co2   1  UNL1       -0.5446
     39 C          62.7826   80.8939   11.6415 C.2     1  UNL1        0.0729
     40 O          62.8974   80.4963   10.1997 O.co2   1  UNL1       -0.5446
@<TRIPOS>UNITY_ATOM_ATTR
38 1
charge -1
@<TRIPOS>BOND
     1    38    39   ar
     2    39    40   ar
     3    39    28    1
     4    28    29   ar
     5    29    30   ar
     6    30    31   ar
     7    31    24    1
     8    24    25   am
     9    25    26    2
    10    25     1    1
    11     1    18    1
    12    18    19    1
    13    19    20    1
    14    20    21    1
    15    21    22    1
    16    22    23    1
    17     1     2    1
    18     2     3   ar
    19     3    11    1
    20    11    12   ar
    21    12    13   ar
    22    13    14   ar
    23    14    15    1
    24    14    16   ar
    25    16    17   ar
    26     3     4   ar
    27     4     5   ar
    28     5     6   ar
    29     6     7   ar
    30     7     8   ar
    31     8     9   ar
    32     9    10   ar
    33    31    32   ar
    34    32    34    1
    35    34    35    1
    36    34    36    1
    37    34    37    1
    38    32    33   ar
    39    33    28   ar
    40    23    18    1
    41    10     2   ar
    42    17    11   ar
    43    10     5   ar
    44    24    27    1
