@<TRIPOS>MOLECULE
*****
 43 46 0 0 0
SMALL
GASTEIGER

@<TRIPOS>ATOM
      1 C          65.8022   93.5736   11.8854 C.ar    1  UNL1        0.1545
      2 N          65.2652   92.1909   11.6620 N.ar    1  UNL1       -0.2276
      3 C          65.1814   91.5055   12.9936 C.ar    1  UNL1        0.1045
      4 C          65.6665   92.4645   14.0400 C.ar    1  UNL1        0.1499
      5 N          66.0503   93.7426   13.3551 N.ar    1  UNL1       -0.2452
      6 N          66.5876   94.9737   14.0226 N.pl3   1  UNL1       -0.2963
      7 H          66.7163   94.9881   14.9986 H       1  UNL1        0.1627
      8 H          66.8117   95.7673   13.4848 H       1  UNL1        0.1627
      9 C          68.0390   93.2029    9.9208 C.2     1  UNL1        0.2494
     10 O          67.7931   92.1706   10.9809 O.2     1  UNL1       -0.2699
     11 N          67.1665   94.4206    9.8430 N.am    1  UNL1       -0.2708
     12 C          67.4123   95.4529    8.7829 C.3     1  UNL1        0.0941
     13 C          66.5398   96.6705    8.7050 C.3     1  UNL1        0.0216
     14 C          65.4214   96.8558    9.6873 C.3     1  UNL1        0.0039
     15 C          65.1756   95.8236   10.7474 C.3     1  UNL1        0.0277
     16 C          66.0481   94.6059   10.8252 C.3     1  UNL1        0.1338
     17 C          69.2308   91.7676    8.1127 C.2     1  UNL1        0.0048
     18 C          69.1574   93.0176    8.9385 C.2     1  UNL1        0.0580
     19 C          64.6973   90.1066   13.2362 C.ar    1  UNL1        0.0193
     20 C          65.1527   89.3557   14.4522 C.ar    1  UNL1        0.0017
     21 C          64.6687   87.9569   14.6949 C.ar    1  UNL1        0.0046
     22 C          63.7292   87.3089   13.7214 C.ar    1  UNL1        0.0537
     23 C          63.2739   88.0597   12.5054 C.ar    1  UNL1        0.0046
     24 C          63.7579   89.4586   12.2627 C.ar    1  UNL1        0.0017
     25 C          63.2452   85.9100   13.9640 C.2     1  UNL1        0.2505
     26 O          62.6668   85.5371   15.2968 O.2     1  UNL1       -0.2698
     27 N          63.3395   84.8841   12.8737 N.am    1  UNL1       -0.2658
     28 H          63.7191   85.1288   11.9990 H       1  UNL1        0.1566
     29 C          62.8555   83.4852   13.1164 C.ar    1  UNL1        0.1343
     30 C          63.0344   82.4357   12.0596 C.ar    1  UNL1        0.0383
     31 C          62.5503   81.0370   12.3022 C.ar    1  UNL1        0.0757
     32 C          61.8874   80.6875   13.6016 C.ar    1  UNL1        0.0246
     33 C          61.7084   81.7368   14.6583 C.ar    1  UNL1        0.1003
     34 N          62.1925   83.1357   14.4157 N.ar    1  UNL1       -0.2290
     35 C          62.7293   79.9875   11.2455 C.3     1  UNL1        0.4187
     36 F          62.9082   78.9380   10.1888 F       1  UNL1       -0.1659
     37 F          62.3986   78.9218   12.2479 F       1  UNL1       -0.1659
     38 F          63.0599   81.0532   10.2431 F       1  UNL1       -0.1659
     39 C          65.7528   92.1930   15.5127 C.2     1  UNL1        0.2618
     40 N          67.0890   92.1703   16.1941 N.am    1  UNL1       -0.3240
     41 O          64.5030   91.9443   16.3040 O.2     1  UNL1       -0.2687
     42 H          67.9092   92.3335   15.6747 H       1  UNL1        0.1453
     43 H          67.1456   91.9921   17.1606 H       1  UNL1        0.1453
@<TRIPOS>BOND
     1    17    18    2
     2    18     9    1
     3     9    10    2
     4     9    11   am
     5    11    12    1
     6    12    13    1
     7    13    14    1
     8    14    15    1
     9    15    16    1
    10    16     1    1
    11     1     2   ar
    12     2     3   ar
    13     3    19    1
    14    19    20   ar
    15    20    21   ar
    16    21    22   ar
    17    22    25    1
    18    25    26    2
    19    25    27   am
    20    27    29    1
    21    29    30   ar
    22    30    31   ar
    23    31    35    1
    24    35    36    1
    25    35    37    1
    26    35    38    1
    27    31    32   ar
    28    32    33   ar
    29    33    34   ar
    30    22    23   ar
    31    23    24   ar
    32     3     4   ar
    33     4    39    1
    34    39    40   am
    35    39    41    2
    36     4     5   ar
    37     5     6    1
    38    16    11    1
    39     5     1   ar
    40    24    19   ar
    41    34    29   ar
    42    27    28    1
    43    40    42    1
    44    40    43    1
    45     6     7    1
    46     6     8    1
@<TRIPOS>MOLECULE
*****
 43 46 0 0 0
SMALL
GASTEIGER

@<TRIPOS>ATOM
      1 C          62.1315   94.8312   -1.6511 C.ar    1  UNL1        0.1545
      2 N          61.2309   94.0441   -0.7459 N.ar    1  UNL1       -0.2276
      3 C          61.9432   93.8469    0.5593 C.ar    1  UNL1        0.1045
      4 C          63.2841   94.5120    0.4608 C.ar    1  UNL1        0.1499
      5 N          63.4004   95.1204   -0.9053 N.ar    1  UNL1       -0.2452
      6 N          64.5788   95.8838   -1.4330 N.pl3   1  UNL1       -0.2963
      7 H          65.3704   96.0223   -0.8643 H       1  UNL1        0.1627
      8 H          64.5606   96.2465   -2.3481 H       1  UNL1        0.1627
      9 C          63.2968   93.3230   -3.9679 C.2     1  UNL1        0.2494
     10 O          63.6100   92.8995   -2.5635 O.2     1  UNL1       -0.2699
     11 N          62.4008   94.5007   -4.2140 N.am    1  UNL1       -0.2708
     12 C          62.0875   94.9242   -5.6184 C.3     1  UNL1        0.0941
     13 C          61.1916   96.1018   -5.8645 C.3     1  UNL1        0.0216
     14 C          60.6090   96.8559   -4.7061 C.3     1  UNL1        0.0039
     15 C          60.9223   96.4323   -3.3016 C.3     1  UNL1        0.0277
     16 C          61.8182   95.2548   -3.0556 C.3     1  UNL1        0.1338
     17 C          65.3674   92.4915   -5.2986 C.2     1  UNL1        0.0048
     18 C          63.8794   92.5689   -5.1263 C.2     1  UNL1        0.0580
     19 C          61.4086   93.1132    1.7535 C.ar    1  UNL1        0.0193
     20 C          59.9976   93.3454    2.2065 C.ar    1  UNL1        0.0017
     21 C          59.4629   92.6118    3.4006 C.ar    1  UNL1        0.0046
     22 C          60.3393   91.6460    4.1417 C.ar    1  UNL1        0.0537
     23 C          61.7502   91.4138    3.6888 C.ar    1  UNL1        0.0046
     24 C          62.2849   92.1474    2.4946 C.ar    1  UNL1        0.0017
     25 C          59.8047   90.9124    5.3359 C.2     1  UNL1        0.2505
     26 O          58.3769   91.1016    5.7550 O.2     1  UNL1       -0.2698
     27 N          60.6979   89.9894    6.1109 N.am    1  UNL1       -0.2658
     28 H          61.6349   89.8652    5.8358 H       1  UNL1        0.1566
     29 C          60.1632   89.2558    7.3050 C.ar    1  UNL1        0.1343
     30 C          60.4987   89.7293    8.6882 C.ar    1  UNL1        0.0383
     31 C          59.9641   88.9957    9.8823 C.ar    1  UNL1        0.0757
     32 C          59.0939   87.7886    9.6932 C.ar    1  UNL1        0.0246
     33 C          58.7584   87.3151    8.3101 C.ar    1  UNL1        0.1003
     34 N          59.2930   88.0487    7.1160 N.ar    1  UNL1       -0.2290
     35 C          60.2996   89.4691   11.2655 C.3     1  UNL1        0.4187
     36 F          60.6352   89.9425   12.6488 F       1  UNL1       -0.1659
     37 F          61.1991   88.2835   11.4532 F       1  UNL1       -0.1659
     38 F          59.4002   90.6547   11.0779 F       1  UNL1       -0.1659
     39 C          64.3257   94.5603    1.5391 C.2     1  UNL1        0.2618
     40 N          65.3472   93.4670    1.6446 N.am    1  UNL1       -0.3240
     41 O          64.3458   95.7020    2.5119 O.2     1  UNL1       -0.2687
     42 H          65.3340   92.7177    1.0061 H       1  UNL1        0.1453
     43 H          66.0309   93.4987    2.3523 H       1  UNL1        0.1453
@<TRIPOS>BOND
     1    17    18    2
     2    18     9    1
     3     9    10    2
     4     9    11   am
     5    11    12    1
     6    12    13    1
     7    13    14    1
     8    14    15    1
     9    15    16    1
    10    16     1    1
    11     1     2   ar
    12     2     3   ar
    13     3    19    1
    14    19    20   ar
    15    20    21   ar
    16    21    22   ar
    17    22    25    1
    18    25    26    2
    19    25    27   am
    20    27    29    1
    21    29    30   ar
    22    30    31   ar
    23    31    35    1
    24    35    36    1
    25    35    37    1
    26    35    38    1
    27    31    32   ar
    28    32    33   ar
    29    33    34   ar
    30    22    23   ar
    31    23    24   ar
    32     3     4   ar
    33     4    39    1
    34    39    40   am
    35    39    41    2
    36     4     5   ar
    37     5     6    1
    38    16    11    1
    39     5     1   ar
    40    24    19   ar
    41    34    29   ar
    42    27    28    1
    43    40    42    1
    44    40    43    1
    45     6     7    1
    46     6     8    1
@<TRIPOS>MOLECULE
*****
 43 46 0 0 0
SMALL
GASTEIGER

@<TRIPOS>ATOM
      1 C          62.7465   94.1095   -1.7835 C.ar    1  UNL1        0.1545
      2 N          61.9828   93.1629   -0.9056 N.ar    1  UNL1       -0.2276
      3 C          62.2237   93.5576    0.5214 C.ar    1  UNL1        0.1045
      4 C          63.1363   94.7481    0.5253 C.ar    1  UNL1        0.1499
      5 N          63.4594   95.0892   -0.8992 N.ar    1  UNL1       -0.2452
      6 N          64.3406   96.2126   -1.3587 N.pl3   1  UNL1       -0.2963
      7 H          64.7668   96.8057   -0.6984 H       1  UNL1        0.1627
      8 H          64.4929   96.3570   -2.3205 H       1  UNL1        0.1627
      9 C          60.8000   95.7497   -3.3712 C.2     1  UNL1        0.2494
     10 O          60.7568   95.7778   -1.8721 O.2     1  UNL1       -0.2699
     11 N          61.8164   94.9015   -4.0766 N.am    1  UNL1       -0.2708
     12 C          61.8596   94.8734   -5.5756 C.3     1  UNL1        0.0941
     13 C          62.8760   94.0252   -6.2809 C.3     1  UNL1        0.0216
     14 C          63.8493   93.2051   -5.4870 C.3     1  UNL1        0.0039
     15 C          63.8061   93.2332   -3.9879 C.3     1  UNL1        0.0277
     16 C          62.7897   94.0814   -3.2827 C.3     1  UNL1        0.1338
     17 C          58.3526   96.3347   -4.0178 C.2     1  UNL1        0.0048
     18 C          59.8267   96.5698   -4.1651 C.2     1  UNL1        0.0580
     19 C          61.6524   92.8806    1.7319 C.ar    1  UNL1        0.0193
     20 C          60.2232   93.1188    2.1199 C.ar    1  UNL1        0.0017
     21 C          59.6518   92.4419    3.3303 C.ar    1  UNL1        0.0046
     22 C          60.5098   91.5267    4.1528 C.ar    1  UNL1        0.0537
     23 C          61.9389   91.2884    3.7648 C.ar    1  UNL1        0.0046
     24 C          62.5103   91.9654    2.5543 C.ar    1  UNL1        0.0017
     25 C          59.9384   90.8497    5.3633 C.2     1  UNL1        0.2505
     26 O          58.5365   91.1542    5.8013 O.2     1  UNL1       -0.2698
     27 N          60.7691   89.8682    6.1359 N.am    1  UNL1       -0.2658
     28 H          61.6892   89.6683    5.8484 H       1  UNL1        0.1566
     29 C          60.1977   89.1912    7.3464 C.ar    1  UNL1        0.1343
     30 C          60.5274   89.7027    8.7174 C.ar    1  UNL1        0.0383
     31 C          59.9561   89.0257    9.9278 C.ar    1  UNL1        0.0757
     32 C          59.0551   87.8373    9.7673 C.ar    1  UNL1        0.0246
     33 C          58.7254   87.3258    8.3963 C.ar    1  UNL1        0.1003
     34 N          59.2968   88.0027    7.1858 N.ar    1  UNL1       -0.2290
     35 C          60.2857   89.5372   11.2988 C.3     1  UNL1        0.4187
     36 F          60.6154   90.0487   12.6699 F       1  UNL1       -0.1659
     37 F          61.1629   88.3433   11.5333 F       1  UNL1       -0.1659
     38 F          59.4085   90.7311   11.0644 F       1  UNL1       -0.1659
     39 C          63.6378   95.4706    1.7405 C.2     1  UNL1        0.2618
     40 N          64.7355   94.8720    2.5691 N.am    1  UNL1       -0.3240
     41 O          63.0415   96.7916    2.1269 O.2     1  UNL1       -0.2687
     42 H          65.1269   94.0050    2.3155 H       1  UNL1        0.1453
     43 H          65.0647   95.3462    3.3667 H       1  UNL1        0.1453
@<TRIPOS>BOND
     1    17    18    2
     2    18     9    1
     3     9    10    2
     4     9    11   am
     5    11    12    1
     6    12    13    1
     7    13    14    1
     8    14    15    1
     9    15    16    1
    10    16     1    1
    11     1     2   ar
    12     2     3   ar
    13     3    19    1
    14    19    20   ar
    15    20    21   ar
    16    21    22   ar
    17    22    25    1
    18    25    26    2
    19    25    27   am
    20    27    29    1
    21    29    30   ar
    22    30    31   ar
    23    31    35    1
    24    35    36    1
    25    35    37    1
    26    35    38    1
    27    31    32   ar
    28    32    33   ar
    29    33    34   ar
    30    22    23   ar
    31    23    24   ar
    32     3     4   ar
    33     4    39    1
    34    39    40   am
    35    39    41    2
    36     4     5   ar
    37     5     6    1
    38    16    11    1
    39     5     1   ar
    40    24    19   ar
    41    34    29   ar
    42    27    28    1
    43    40    42    1
    44    40    43    1
    45     6     7    1
    46     6     8    1
@<TRIPOS>MOLECULE
*****
 43 46 0 0 0
SMALL
GASTEIGER

@<TRIPOS>ATOM
      1 C          71.7635   72.1747   15.3233 C.ar    1  UNL1        0.1545
      2 N          72.2995   72.9931   14.1862 N.ar    1  UNL1       -0.2276
      3 C          71.6008   74.3203   14.2006 C.ar    1  UNL1        0.1045
      4 C          70.6328   74.3222   15.3466 C.ar    1  UNL1        0.1499
      5 N          70.7334   72.9962   16.0404 N.ar    1  UNL1       -0.2452
      6 N          69.9428   72.5669   17.2406 N.pl3   1  UNL1       -0.2963
      7 H          69.2861   73.1805   17.6427 H       1  UNL1        0.1627
      8 H          70.0805   71.6717   17.6264 H       1  UNL1        0.1627
      9 C          70.5474   69.8308   13.8994 C.2     1  UNL1        0.2494
     10 O          70.1273   71.2257   13.5422 O.2     1  UNL1       -0.2699
     11 N          71.5757   69.6078   14.9686 N.am    1  UNL1       -0.2708
     12 C          71.9958   68.2129   15.3258 C.3     1  UNL1        0.0941
     13 C          73.0240   67.9899   16.3950 C.3     1  UNL1        0.0216
     14 C          73.6320   69.1619   17.1069 C.3     1  UNL1        0.0039
     15 C          73.2119   70.5568   16.7497 C.3     1  UNL1        0.0277
     16 C          72.1837   70.7798   15.6805 C.3     1  UNL1        0.1338
     17 C          68.6680   68.8306   12.4104 C.2     1  UNL1        0.0048
     18 C          69.9394   68.6588   13.1875 C.2     1  UNL1        0.0580
     19 C          71.8297   75.4477   13.2380 C.ar    1  UNL1        0.0193
     20 C          70.6907   76.3410   12.8445 C.ar    1  UNL1        0.0017
     21 C          70.9196   77.4683   11.8820 C.ar    1  UNL1        0.0046
     22 C          72.2876   77.7025   11.3129 C.ar    1  UNL1        0.0537
     23 C          73.4266   76.8093   11.7063 C.ar    1  UNL1        0.0046
     24 C          73.1976   75.6819   12.6689 C.ar    1  UNL1        0.0017
     25 C          72.5165   78.8299   10.3503 C.2     1  UNL1        0.2505
     26 O          73.6288   78.7457    9.3475 O.2     1  UNL1       -0.2698
     27 N          71.6331   80.0416   10.3905 N.am    1  UNL1       -0.2658
     28 H          70.9030   80.0968   11.0487 H       1  UNL1        0.1566
     29 C          71.8620   81.1690    9.4279 C.ar    1  UNL1        0.1343
     30 C          71.8762   80.9035    7.9517 C.ar    1  UNL1        0.0383
     31 C          72.1052   82.0309    6.9892 C.ar    1  UNL1        0.0757
     32 C          72.3199   83.4237    7.5028 C.ar    1  UNL1        0.0246
     33 C          72.3057   83.6892    8.9790 C.ar    1  UNL1        0.1003
     34 N          72.0768   82.5618    9.9416 N.ar    1  UNL1       -0.2290
     35 C          72.1194   81.7655    5.5129 C.3     1  UNL1        0.4187
     36 F          72.1336   81.5000    4.0366 F       1  UNL1       -0.1659
     37 F          72.3691   80.3102    5.7770 F       1  UNL1       -0.1659
     38 F          71.8697   83.2207    5.2488 F       1  UNL1       -0.1659
     39 C          69.7240   75.4519   15.7311 C.2     1  UNL1        0.2618
     40 N          69.9823   76.8337   15.2078 N.am    1  UNL1       -0.3240
     41 O          68.5568   75.1997   16.6390 O.2     1  UNL1       -0.2687
     42 H          70.7483   76.9992   14.6120 H       1  UNL1        0.1453
     43 H          69.3857   77.5751   15.4602 H       1  UNL1        0.1453
@<TRIPOS>BOND
     1    17    18    2
     2    18     9    1
     3     9    10    2
     4     9    11   am
     5    11    12    1
     6    12    13    1
     7    13    14    1
     8    14    15    1
     9    15    16    1
    10    16     1    1
    11     1     2   ar
    12     2     3   ar
    13     3    19    1
    14    19    20   ar
    15    20    21   ar
    16    21    22   ar
    17    22    25    1
    18    25    26    2
    19    25    27   am
    20    27    29    1
    21    29    30   ar
    22    30    31   ar
    23    31    35    1
    24    35    36    1
    25    35    37    1
    26    35    38    1
    27    31    32   ar
    28    32    33   ar
    29    33    34   ar
    30    22    23   ar
    31    23    24   ar
    32     3     4   ar
    33     4    39    1
    34    39    40   am
    35    39    41    2
    36     4     5   ar
    37     5     6    1
    38    16    11    1
    39     5     1   ar
    40    24    19   ar
    41    34    29   ar
    42    27    28    1
    43    40    42    1
    44    40    43    1
    45     6     7    1
    46     6     8    1
@<TRIPOS>MOLECULE
*****
 43 46 0 0 0
SMALL
GASTEIGER

@<TRIPOS>ATOM
      1 C          63.1768   84.1266   13.9528 C.ar    1  UNL1        0.1545
      2 N          63.6485   85.3547   13.2322 N.ar    1  UNL1       -0.2276
      3 C          63.6284   86.4981   14.2030 C.ar    1  UNL1        0.1045
      4 C          63.1443   85.9766   15.5235 C.ar    1  UNL1        0.1499
      5 N          62.8652   84.5109   15.3688 N.ar    1  UNL1       -0.2452
      6 N          62.3627   83.5911   16.4419 N.pl3   1  UNL1       -0.2963
      7 H          62.1864   83.9391   17.3458 H       1  UNL1        0.1627
      8 H          62.2092   82.6394   16.2422 H       1  UNL1        0.1627
      9 C          63.2593   83.7620   10.9762 C.2     1  UNL1        0.2494
     10 O          63.3955   85.1336   11.5678 O.2     1  UNL1       -0.2699
     11 N          63.0818   82.5726   11.8728 N.am    1  UNL1       -0.2708
     12 C          62.9456   81.2010   11.2812 C.3     1  UNL1        0.0941
     13 C          62.7682   80.0117   12.1779 C.3     1  UNL1        0.0216
     14 C          62.7270   80.1940   13.6662 C.3     1  UNL1        0.0039
     15 C          62.8632   81.5656   14.2578 C.3     1  UNL1        0.0277
     16 C          63.0406   82.7549   13.3611 C.3     1  UNL1        0.1338
     17 C          63.2233   84.7739    8.5835 C.2     1  UNL1        0.0048
     18 C          63.3005   83.5796    9.4878 C.2     1  UNL1        0.0580
     19 C          64.0232   87.9143   13.9054 C.ar    1  UNL1        0.0193
     20 C          65.0198   88.6148   14.7807 C.ar    1  UNL1        0.0017
     21 C          65.4146   90.0309   14.4832 C.ar    1  UNL1        0.0046
     22 C          64.8126   90.7467   13.3104 C.ar    1  UNL1        0.0537
     23 C          63.8160   90.0463   12.4351 C.ar    1  UNL1        0.0046
     24 C          63.4213   88.6301   12.7327 C.ar    1  UNL1        0.0017
     25 C          65.2073   92.1629   13.0129 C.2     1  UNL1        0.2505
     26 O          65.4097   93.1368   14.1356 O.2     1  UNL1       -0.2698
     27 N          65.3997   92.6053   11.5925 N.am    1  UNL1       -0.2658
     28 H          65.2669   91.9661   10.8555 H       1  UNL1        0.1566
     29 C          65.7945   94.0215   11.2949 C.ar    1  UNL1        0.1343
     30 C          65.8795   94.4936    9.8737 C.ar    1  UNL1        0.0383
     31 C          66.2742   95.9097    9.5762 C.ar    1  UNL1        0.0757
     32 C          66.5839   96.8539   10.6999 C.ar    1  UNL1        0.0246
     33 C          66.4989   96.3819   12.1211 C.ar    1  UNL1        0.1003
     34 N          66.1041   94.9656   12.4186 N.ar    1  UNL1       -0.2290
     35 C          66.3593   96.3819    8.1550 C.3     1  UNL1        0.4187
     36 F          66.4443   96.8540    6.7337 F       1  UNL1       -0.1659
     37 F          64.9334   96.8423    8.2226 F       1  UNL1       -0.1659
     38 F          67.7852   95.9214    8.0873 F       1  UNL1       -0.1659
     39 C          62.9699   86.7797   16.7783 C.2     1  UNL1        0.2618
     40 N          62.4527   88.1857   16.7030 N.am    1  UNL1       -0.3240
     41 O          63.3128   86.1769   18.1084 O.2     1  UNL1       -0.2687
     42 H          62.2277   88.5814   15.8300 H       1  UNL1        0.1453
     43 H          62.3383   88.7129   17.5266 H       1  UNL1        0.1453
@<TRIPOS>BOND
     1    17    18    2
     2    18     9    1
     3     9    10    2
     4     9    11   am
     5    11    12    1
     6    12    13    1
     7    13    14    1
     8    14    15    1
     9    15    16    1
    10    16     1    1
    11     1     2   ar
    12     2     3   ar
    13     3    19    1
    14    19    20   ar
    15    20    21   ar
    16    21    22   ar
    17    22    25    1
    18    25    26    2
    19    25    27   am
    20    27    29    1
    21    29    30   ar
    22    30    31   ar
    23    31    35    1
    24    35    36    1
    25    35    37    1
    26    35    38    1
    27    31    32   ar
    28    32    33   ar
    29    33    34   ar
    30    22    23   ar
    31    23    24   ar
    32     3     4   ar
    33     4    39    1
    34    39    40   am
    35    39    41    2
    36     4     5   ar
    37     5     6    1
    38    16    11    1
    39     5     1   ar
    40    24    19   ar
    41    34    29   ar
    42    27    28    1
    43    40    42    1
    44    40    43    1
    45     6     7    1
    46     6     8    1
@<TRIPOS>MOLECULE
*****
 43 46 0 0 0
SMALL
GASTEIGER

@<TRIPOS>ATOM
      1 C          60.9590   94.1735   -0.9140 C.ar    1  UNL1        0.1545
      2 N          60.2629   93.3364    0.1178 N.ar    1  UNL1       -0.2276
      3 C          61.1552   93.2456    1.3201 C.ar    1  UNL1        0.1045
      4 C          62.4029   94.0267    1.0314 C.ar    1  UNL1        0.1499
      5 N          62.2816   94.6002   -0.3493 N.ar    1  UNL1       -0.2452
      6 N          63.3035   95.4509   -1.0435 N.pl3   1  UNL1       -0.2963
      7 H          64.1460   95.6786   -0.5879 H       1  UNL1        0.1627
      8 H          63.1317   95.7817   -1.9547 H       1  UNL1        0.1627
      9 C          58.5634   95.9609   -1.1712 C.2     1  UNL1        0.2494
     10 O          59.0962   95.6117    0.1868 O.2     1  UNL1       -0.2699
     11 N          59.2284   95.4164   -2.4006 N.am    1  UNL1       -0.2708
     12 C          58.6956   95.7656   -3.7586 C.3     1  UNL1        0.0941
     13 C          59.3605   95.2212   -4.9879 C.3     1  UNL1        0.0216
     14 C          60.5584   94.3275   -4.8593 C.3     1  UNL1        0.0039
     15 C          61.0912   93.9783   -3.5013 C.3     1  UNL1        0.0277
     16 C          60.4262   94.5227   -2.2720 C.3     1  UNL1        0.1338
     17 C          55.9852   96.2818   -1.1716 C.2     1  UNL1        0.0048
     18 C          57.3656   96.8546   -1.2998 C.2     1  UNL1        0.0580
     19 C          60.8529   92.5040    2.5884 C.ar    1  UNL1        0.0193
     20 C          61.8706   91.5687    3.1711 C.ar    1  UNL1        0.0017
     21 C          61.5684   90.8271    4.4393 C.ar    1  UNL1        0.0046
     22 C          60.2484   91.0208    5.1250 C.ar    1  UNL1        0.0537
     23 C          59.2307   91.9560    4.5424 C.ar    1  UNL1        0.0046
     24 C          59.5329   92.6976    3.2741 C.ar    1  UNL1        0.0017
     25 C          59.9461   90.2792    6.3934 C.2     1  UNL1        0.2505
     26 O          58.7232   89.4153    6.4838 O.2     1  UNL1       -0.2698
     27 N          60.8668   90.4014    7.5713 N.am    1  UNL1       -0.2658
     28 H          61.6695   90.9684    7.5119 H       1  UNL1        0.1566
     29 C          60.5646   89.6598    8.8396 C.ar    1  UNL1        0.1343
     30 C          61.0362   88.2464    9.0126 C.ar    1  UNL1        0.0383
     31 C          60.7339   87.5049   10.2809 C.ar    1  UNL1        0.0757
     32 C          59.9600   88.1766   11.3762 C.ar    1  UNL1        0.0246
     33 C          59.4884   89.5899   11.2033 C.ar    1  UNL1        0.1003
     34 N          59.7907   90.3316    9.9350 N.ar    1  UNL1       -0.2290
     35 C          61.2055   86.0915   10.4538 C.3     1  UNL1        0.4187
     36 F          61.6772   84.6780   10.6269 F       1  UNL1       -0.1659
     37 F          61.7649   86.4429   11.8005 F       1  UNL1       -0.1659
     38 F          60.6462   85.7400    9.1072 F       1  UNL1       -0.1659
     39 C          63.5672   94.2033    1.9604 C.2     1  UNL1        0.2618
     40 N          64.5356   93.0774    2.1717 N.am    1  UNL1       -0.3240
     41 O          63.7633   95.5059    2.6781 O.2     1  UNL1       -0.2687
     42 H          64.4069   92.2226    1.7006 H       1  UNL1        0.1453
     43 H          65.2998   93.1933    2.7814 H       1  UNL1        0.1453
@<TRIPOS>BOND
     1    17    18    2
     2    18     9    1
     3     9    10    2
     4     9    11   am
     5    11    12    1
     6    12    13    1
     7    13    14    1
     8    14    15    1
     9    15    16    1
    10    16     1    1
    11     1     2   ar
    12     2     3   ar
    13     3    19    1
    14    19    20   ar
    15    20    21   ar
    16    21    22   ar
    17    22    25    1
    18    25    26    2
    19    25    27   am
    20    27    29    1
    21    29    30   ar
    22    30    31   ar
    23    31    35    1
    24    35    36    1
    25    35    37    1
    26    35    38    1
    27    31    32   ar
    28    32    33   ar
    29    33    34   ar
    30    22    23   ar
    31    23    24   ar
    32     3     4   ar
    33     4    39    1
    34    39    40   am
    35    39    41    2
    36     4     5   ar
    37     5     6    1
    38    16    11    1
    39     5     1   ar
    40    24    19   ar
    41    34    29   ar
    42    27    28    1
    43    40    42    1
    44    40    43    1
    45     6     7    1
    46     6     8    1
