@<TRIPOS>MOLECULE
*****
 34 37 0 0 0
SMALL
GASTEIGER

@<TRIPOS>ATOM
      1 C          61.4625   87.9228   10.5186 C.3     1  UNL1        0.1174
      2 C          60.8392   88.4249    9.2500 C.ar    1  UNL1        0.0961
      3 N          60.3676   89.6558    8.5341 N.ar    1  UNL1       -0.1681
      4 N          59.8306   89.2374    7.1975 N.ar    1  UNL1       -0.2287
      5 C          59.9703   87.7480    7.0873 C.ar    1  UNL1        0.0990
      6 C          60.5936   87.2458    8.3559 C.ar    1  UNL1        0.0337
      7 C          61.0652   86.0150    9.0718 C.3     1  UNL1        0.1235
      8 N          61.6022   86.4333   10.4085 N.pl3   1  UNL1       -0.2703
      9 C          59.2550   90.1485    6.1541 C.ar    1  UNL1        0.0841
     10 C          57.7701   90.3399    6.0621 C.ar    1  UNL1        0.0192
     11 C          57.1946   91.2510    5.0187 C.ar    1  UNL1        0.0029
     12 C          58.1039   91.9708    4.0674 C.ar    1  UNL1        0.0184
     13 C          59.5888   91.7794    4.1594 C.ar    1  UNL1        0.1072
     14 C          60.1643   90.8683    5.2028 C.ar    1  UNL1        0.0375
     15 S          60.4981   92.4992    3.2080 S.O2    1  UNL1        0.0105
     16 C          61.4075   93.2189    2.2568 C.3     1  UNL1        0.1816
     17 O          59.3060   93.0894    2.5149 O.2     1  UNL1       -0.1686
     18 O          61.6903   91.9090    3.9012 O.2     1  UNL1       -0.1686
     19 C          62.1778   85.5222   11.4518 C.ar    1  UNL1        0.2206
     20 N          62.7678   86.0962   12.7059 N.ar    1  UNL1       -0.2123
     21 C          63.3434   85.1851   13.7491 C.ar    1  UNL1        0.1014
     22 C          63.3290   83.6999   13.5385 C.ar    1  UNL1        0.0479
     23 C          62.7390   83.1260   12.2845 C.ar    1  UNL1        0.1553
     24 N          62.1634   84.0372   11.2412 N.ar    1  UNL1       -0.2099
     25 C          62.7246   81.6409   12.0739 C.3     1  UNL1        0.4348
     26 F          62.7101   80.1559   11.8634 F       1  UNL1       -0.1644
     27 F          61.5548   81.5203   13.0051 F       1  UNL1       -0.1644
     28 F          63.8944   81.7616   11.1428 F       1  UNL1       -0.1644
     29 C          63.9046   82.7888   14.5818 C.3     1  UNL1        0.1666
     30 O          64.6707   83.3614   15.7374 O.3     1  UNL1       -0.3771
     31 H          65.4871   83.7721   15.4123 H       1  UNL1        0.2109
     32 C          60.8337   89.4662   12.5117 C.3     1  UNL1        0.0021
     33 C          61.8739   88.7625   11.6915 C.3     1  UNL1        0.0241
     34 C          63.3255   88.8986   12.0441 C.3     1  UNL1        0.0021
@<TRIPOS>BOND
     1    32    33    1
     2    33    34    1
     3     1    33    1
     4     1     2    1
     5     2     3   ar
     6     3     4   ar
     7     4     9    1
     8     9    10   ar
     9    10    11   ar
    10    11    12   ar
    11    12    13   ar
    12    13    15    1
    13    15    16    1
    14    15    17    2
    15    15    18    2
    16    13    14   ar
    17     4     5   ar
    18     5     6   ar
    19     6     7    1
    20     7     8    1
    21     8    19    1
    22    19    20   ar
    23    20    21   ar
    24    21    22   ar
    25    22    29    1
    26    29    30    1
    27    22    23   ar
    28    23    25    1
    29    25    26    1
    30    25    27    1
    31    25    28    1
    32    23    24   ar
    33     8     1    1
    34    24    19   ar
    35     6     2   ar
    36    14     9   ar
    37    30    31    1
@<TRIPOS>MOLECULE
*****
 34 37 0 0 0
SMALL
GASTEIGER

@<TRIPOS>ATOM
      1 C          61.4545   87.7570   10.5317 C.3     1  UNL1        0.1174
      2 C          60.8287   88.2848    9.2747 C.ar    1  UNL1        0.0961
      3 N          60.3797   89.5328    8.5741 N.ar    1  UNL1       -0.1681
      4 N          59.8162   89.1386    7.2410 N.ar    1  UNL1       -0.2287
      5 C          59.9168   87.6471    7.1178 C.ar    1  UNL1        0.0990
      6 C          60.5426   87.1194    8.3747 C.ar    1  UNL1        0.0337
      7 C          60.9916   85.8714    9.0754 C.3     1  UNL1        0.1235
      8 N          61.5552   86.2655   10.4085 N.pl3   1  UNL1       -0.2703
      9 C          59.2511   90.0722    6.2118 C.ar    1  UNL1        0.0841
     10 C          57.7682   90.2785    6.1200 C.ar    1  UNL1        0.0192
     11 C          57.2032   91.2120    5.0908 C.ar    1  UNL1        0.0029
     12 C          58.1210   91.9393    4.1534 C.ar    1  UNL1        0.0184
     13 C          59.6039   91.7329    4.2452 C.ar    1  UNL1        0.1072
     14 C          60.1689   90.7994    5.2744 C.ar    1  UNL1        0.0375
     15 S          60.5218   92.4601    3.3078 S.O2    1  UNL1        0.0105
     16 C          61.4397   93.1873    2.3704 C.3     1  UNL1        0.1816
     17 O          61.7064   91.8320    3.9804 O.2     1  UNL1       -0.1686
     18 O          59.3372   93.0883    2.6353 O.2     1  UNL1       -0.1686
     19 C          62.1203   85.3320   11.4376 C.ar    1  UNL1        0.2206
     20 N          62.2845   83.8753   11.1193 N.ar    1  UNL1       -0.2123
     21 C          62.8495   82.9418   12.1485 C.ar    1  UNL1        0.1014
     22 C          63.2504   83.4649   13.4960 C.ar    1  UNL1        0.0479
     23 C          63.0862   84.9215   13.8144 C.ar    1  UNL1        0.1553
     24 N          62.5211   85.8550   12.7851 N.ar    1  UNL1       -0.2099
     25 C          63.4870   85.4445   15.1619 C.3     1  UNL1        0.4348
     26 F          63.8877   85.9675   16.5094 F       1  UNL1       -0.1644
     27 F          62.2050   84.9269   15.7440 F       1  UNL1       -0.1644
     28 F          64.7689   85.9620   14.5797 F       1  UNL1       -0.1644
     29 C          63.8154   82.5313   14.5252 C.3     1  UNL1        0.1666
     30 O          63.6244   81.0506   14.3801 O.3     1  UNL1       -0.3771
     31 H          62.6823   80.8362   14.4662 H       1  UNL1        0.2109
     32 C          63.3439   88.5751   12.1162 C.3     1  UNL1        0.0021
     33 C          61.9012   88.5769   11.7057 C.3     1  UNL1        0.0241
     34 C          60.9051   89.3984   12.4692 C.3     1  UNL1        0.0021
@<TRIPOS>BOND
     1    32    33    1
     2    33    34    1
     3     1    33    1
     4     1     2    1
     5     2     3   ar
     6     3     4   ar
     7     4     9    1
     8     9    10   ar
     9    10    11   ar
    10    11    12   ar
    11    12    13   ar
    12    13    15    1
    13    15    16    1
    14    15    17    2
    15    15    18    2
    16    13    14   ar
    17     4     5   ar
    18     5     6   ar
    19     6     7    1
    20     7     8    1
    21     8    19    1
    22    19    20   ar
    23    20    21   ar
    24    21    22   ar
    25    22    29    1
    26    29    30    1
    27    22    23   ar
    28    23    25    1
    29    25    26    1
    30    25    27    1
    31    25    28    1
    32    23    24   ar
    33     8     1    1
    34    24    19   ar
    35     6     2   ar
    36    14     9   ar
    37    30    31    1
@<TRIPOS>MOLECULE
*****
 34 37 0 0 0
SMALL
GASTEIGER

@<TRIPOS>ATOM
      1 C          63.0813   86.9719   12.6769 C.3     1  UNL1        0.1174
      2 C          63.7983   88.2350   13.0517 C.ar    1  UNL1        0.0961
      3 N          64.0637   89.6502   12.6314 N.ar    1  UNL1       -0.1681
      4 N          64.9584   90.2786   13.6582 N.ar    1  UNL1       -0.2287
      5 C          65.2461   89.2519   14.7132 C.ar    1  UNL1        0.0990
      6 C          64.5290   87.9888   14.3383 C.ar    1  UNL1        0.0337
      7 C          64.2637   86.5735   14.7587 C.3     1  UNL1        0.1235
      8 N          63.3689   85.9450   13.7318 N.pl3   1  UNL1       -0.2703
      9 C          65.4749   91.6867   13.6343 C.ar    1  UNL1        0.0841
     10 C          65.9871   92.3192   14.8943 C.ar    1  UNL1        0.0192
     11 C          66.5035   93.7273   14.8703 C.ar    1  UNL1        0.0029
     12 C          66.5079   94.5029   13.5864 C.ar    1  UNL1        0.0184
     13 C          65.9958   93.8704   12.3264 C.ar    1  UNL1        0.1072
     14 C          65.4793   92.4623   12.3504 C.ar    1  UNL1        0.0375
     15 S          66.0001   94.6459   11.0425 S.O2    1  UNL1        0.0105
     16 C          66.0044   95.4213    9.7585 C.3     1  UNL1        0.1816
     17 O          65.9979   95.9299   11.8179 O.2     1  UNL1       -0.1686
     18 O          66.0023   93.3618   10.2670 O.2     1  UNL1       -0.1686
     19 C          62.8524   84.5370   13.7557 C.ar    1  UNL1        0.2206
     20 N          62.0875   84.0388   14.9461 N.ar    1  UNL1       -0.2123
     21 C          61.5710   82.6308   14.9700 C.ar    1  UNL1        0.1014
     22 C          61.8194   81.7208   13.8036 C.ar    1  UNL1        0.0479
     23 C          62.5843   82.2190   12.6133 C.ar    1  UNL1        0.1553
     24 N          63.1008   83.6271   12.5894 N.ar    1  UNL1       -0.2099
     25 C          62.8327   81.3091   11.4469 C.3     1  UNL1        0.4348
     26 F          63.0810   80.3993   10.2806 F       1  UNL1       -0.1644
     27 F          62.5938   82.4517   10.5048 F       1  UNL1       -0.1644
     28 F          63.0716   80.1666   12.3891 F       1  UNL1       -0.1644
     29 C          61.3030   80.3127   13.8275 C.3     1  UNL1        0.1666
     30 O          59.8805   80.0422   14.2191 O.3     1  UNL1       -0.3771
     31 H          59.7511   80.2784   15.1509 H       1  UNL1        0.2109
     32 C          62.6662   85.8242   10.3833 C.3     1  UNL1        0.0021
     33 C          62.2267   86.7709   11.4606 C.3     1  UNL1        0.0241
     34 C          60.9326   87.5165   11.3217 C.3     1  UNL1        0.0021
@<TRIPOS>BOND
     1    32    33    1
     2    33    34    1
     3     1    33    1
     4     1     2    1
     5     2     3   ar
     6     3     4   ar
     7     4     9    1
     8     9    10   ar
     9    10    11   ar
    10    11    12   ar
    11    12    13   ar
    12    13    15    1
    13    15    16    1
    14    15    17    2
    15    15    18    2
    16    13    14   ar
    17     4     5   ar
    18     5     6   ar
    19     6     7    1
    20     7     8    1
    21     8    19    1
    22    19    20   ar
    23    20    21   ar
    24    21    22   ar
    25    22    29    1
    26    29    30    1
    27    22    23   ar
    28    23    25    1
    29    25    26    1
    30    25    27    1
    31    25    28    1
    32    23    24   ar
    33     8     1    1
    34    24    19   ar
    35     6     2   ar
    36    14     9   ar
    37    30    31    1
@<TRIPOS>MOLECULE
*****
 34 37 0 0 0
SMALL
GASTEIGER

@<TRIPOS>ATOM
      1 C          60.9289   92.2054    3.2012 C.3     1  UNL1        0.1174
      2 C          60.5005   91.3920    4.3865 C.ar    1  UNL1        0.0961
      3 N          60.9881   90.4773    5.4707 N.ar    1  UNL1       -0.1681
      4 N          59.8073   90.0760    6.3043 N.ar    1  UNL1       -0.2287
      5 C          58.5901   90.7426    5.7352 C.ar    1  UNL1        0.0990
      6 C          59.0185   91.5560    4.5499 C.ar    1  UNL1        0.0337
      7 C          58.5309   92.4707    3.4657 C.3     1  UNL1        0.1235
      8 N          59.7117   92.8721    2.6321 N.pl3   1  UNL1       -0.2703
      9 C          59.8384   89.1675    7.4974 C.ar    1  UNL1        0.0841
     10 C          59.1888   87.8171    7.4291 C.ar    1  UNL1        0.0192
     11 C          59.2199   86.9087    8.6223 C.ar    1  UNL1        0.0029
     12 C          59.9005   87.3505    9.8839 C.ar    1  UNL1        0.0184
     13 C          60.5501   88.7008    9.9523 C.ar    1  UNL1        0.1072
     14 C          60.5190   89.6093    8.7590 C.ar    1  UNL1        0.0375
     15 S          61.2307   89.1427   11.2138 S.O2    1  UNL1        0.0105
     16 C          61.9114   89.5846   12.4752 C.3     1  UNL1        0.1816
     17 O          60.0662   88.6438   12.0169 O.2     1  UNL1       -0.1686
     18 O          62.3953   89.6416   10.4106 O.2     1  UNL1       -0.1686
     19 C          59.6806   93.7806    1.4390 C.ar    1  UNL1        0.2206
     20 N          59.8707   95.2580    1.6160 N.ar    1  UNL1       -0.2123
     21 C          59.8396   96.1664    0.4229 C.ar    1  UNL1        0.1014
     22 C          59.6184   95.5976   -0.9474 C.ar    1  UNL1        0.0479
     23 C          59.4283   94.1203   -1.1245 C.ar    1  UNL1        0.1553
     24 N          59.4594   93.2118    0.0688 N.ar    1  UNL1       -0.2099
     25 C          59.2071   93.5515   -2.4947 C.3     1  UNL1        0.4348
     26 F          58.9860   92.9827   -3.8649 F       1  UNL1       -0.1644
     27 F          60.6880   93.3810   -2.6629 F       1  UNL1       -0.1644
     28 F          57.7264   93.7220   -2.3265 F       1  UNL1       -0.1644
     29 C          59.5874   96.5061   -2.1406 C.3     1  UNL1        0.1666
     30 O          60.8269   96.7104   -2.9602 O.3     1  UNL1       -0.3771
     31 H          61.4960   97.1665   -2.4262 H       1  UNL1        0.2109
     32 C          62.7252   93.5352    1.8766 C.3     1  UNL1        0.0021
     33 C          62.3288   92.3302    2.6770 C.3     1  UNL1        0.0241
     34 C          63.3322   91.2500    2.9533 C.3     1  UNL1        0.0021
@<TRIPOS>BOND
     1    32    33    1
     2    33    34    1
     3     1    33    1
     4     1     2    1
     5     2     3   ar
     6     3     4   ar
     7     4     9    1
     8     9    10   ar
     9    10    11   ar
    10    11    12   ar
    11    12    13   ar
    12    13    15    1
    13    15    16    1
    14    15    17    2
    15    15    18    2
    16    13    14   ar
    17     4     5   ar
    18     5     6   ar
    19     6     7    1
    20     7     8    1
    21     8    19    1
    22    19    20   ar
    23    20    21   ar
    24    21    22   ar
    25    22    29    1
    26    29    30    1
    27    22    23   ar
    28    23    25    1
    29    25    26    1
    30    25    27    1
    31    25    28    1
    32    23    24   ar
    33     8     1    1
    34    24    19   ar
    35     6     2   ar
    36    14     9   ar
    37    30    31    1
@<TRIPOS>MOLECULE
*****
 34 37 0 0 0
SMALL
GASTEIGER

@<TRIPOS>ATOM
      1 C          63.1323   85.9108   12.3687 C.3     1  UNL1        0.1174
      2 C          63.6219   87.0217   13.2497 C.ar    1  UNL1        0.0961
      3 N          63.6256   88.5100   13.4371 N.ar    1  UNL1       -0.1681
      4 N          64.4140   88.8192   14.6751 N.ar    1  UNL1       -0.2287
      5 C          64.8975   87.5222   15.2529 C.ar    1  UNL1        0.0990
      6 C          64.4079   86.4112   14.3719 C.ar    1  UNL1        0.0337
      7 C          64.4042   84.9230   14.1845 C.3     1  UNL1        0.1235
      8 N          63.6158   84.6136   12.9464 N.pl3   1  UNL1       -0.2703
      9 C          64.6733   90.1857   15.2369 C.ar    1  UNL1        0.0841
     10 C          63.6120   90.8819   16.0361 C.ar    1  UNL1        0.0192
     11 C          63.8714   92.2484   16.5978 C.ar    1  UNL1        0.0029
     12 C          65.1921   92.9186   16.3603 C.ar    1  UNL1        0.0184
     13 C          66.2535   92.2224   15.5611 C.ar    1  UNL1        0.1072
     14 C          65.9941   90.8560   14.9994 C.ar    1  UNL1        0.0375
     15 S          67.5742   92.8926   15.3235 S.O2    1  UNL1        0.0105
     16 C          68.8950   93.5628   15.0859 C.3     1  UNL1        0.1816
     17 O          68.2125   91.9964   16.3430 O.2     1  UNL1       -0.1686
     18 O          66.9360   93.7889   14.3039 O.2     1  UNL1       -0.1686
     19 C          63.3565   83.2473   12.3847 C.ar    1  UNL1        0.2206
     20 N          63.8923   82.8777   11.0332 N.ar    1  UNL1       -0.2123
     21 C          63.6330   81.5114   10.4716 C.ar    1  UNL1        0.1014
     22 C          62.8378   80.5143   11.2613 C.ar    1  UNL1        0.0479
     23 C          62.3020   80.8837   12.6128 C.ar    1  UNL1        0.1553
     24 N          62.5613   82.2502   13.1744 N.ar    1  UNL1       -0.2099
     25 C          61.5068   79.8867   13.4025 C.3     1  UNL1        0.4348
     26 F          60.7116   78.8897   14.1922 F       1  UNL1       -0.1644
     27 F          60.3393   80.8285   13.4158 F       1  UNL1       -0.1644
     28 F          62.6743   78.9450   13.3892 F       1  UNL1       -0.1644
     29 C          62.5785   79.1478   10.6996 C.3     1  UNL1        0.1666
     30 O          62.8515   78.8680    9.2515 O.3     1  UNL1       -0.3771
     31 H          62.2442   79.3874    8.7017 H       1  UNL1        0.2109
     32 C          62.7770   85.4812    9.8312 C.3     1  UNL1        0.0021
     33 C          62.3046   86.0691   11.1278 C.3     1  UNL1        0.0241
     34 C          61.0046   86.8154   11.1835 C.3     1  UNL1        0.0021
@<TRIPOS>BOND
     1    32    33    1
     2    33    34    1
     3     1    33    1
     4     1     2    1
     5     2     3   ar
     6     3     4   ar
     7     4     9    1
     8     9    10   ar
     9    10    11   ar
    10    11    12   ar
    11    12    13   ar
    12    13    15    1
    13    15    16    1
    14    15    17    2
    15    15    18    2
    16    13    14   ar
    17     4     5   ar
    18     5     6   ar
    19     6     7    1
    20     7     8    1
    21     8    19    1
    22    19    20   ar
    23    20    21   ar
    24    21    22   ar
    25    22    29    1
    26    29    30    1
    27    22    23   ar
    28    23    25    1
    29    25    26    1
    30    25    27    1
    31    25    28    1
    32    23    24   ar
    33     8     1    1
    34    24    19   ar
    35     6     2   ar
    36    14     9   ar
    37    30    31    1
@<TRIPOS>MOLECULE
*****
 34 37 0 0 0
SMALL
GASTEIGER

@<TRIPOS>ATOM
      1 C          63.3539   88.3189   12.5941 C.3     1  UNL1        0.1174
      2 C          63.2409   86.8542   12.8972 C.ar    1  UNL1        0.0961
      3 N          62.4950   85.5984   12.5558 N.ar    1  UNL1       -0.1681
      4 N          63.0579   84.4844   13.3877 N.ar    1  UNL1       -0.2287
      5 C          64.1516   85.0517   14.2432 C.ar    1  UNL1        0.0990
      6 C          64.2647   86.5164   13.9401 C.ar    1  UNL1        0.0337
      7 C          65.0105   87.7722   14.2816 C.3     1  UNL1        0.1235
      8 N          64.4476   88.8863   13.4496 N.pl3   1  UNL1       -0.2703
      9 C          62.6064   83.0541   13.3676 C.ar    1  UNL1        0.0841
     10 C          61.8420   82.4925   14.5296 C.ar    1  UNL1        0.0192
     11 C          61.3905   81.0621   14.5094 C.ar    1  UNL1        0.0029
     12 C          61.7034   80.1934   13.3272 C.ar    1  UNL1        0.0184
     13 C          62.4678   80.7550   12.1652 C.ar    1  UNL1        0.1072
     14 C          62.9192   82.1854   12.1854 C.ar    1  UNL1        0.0375
     15 S          62.7806   79.8864   10.9831 S.O2    1  UNL1        0.0105
     16 C          63.0935   79.0177    9.8009 C.3     1  UNL1        0.1816
     17 O          63.1190   81.1053   10.1769 O.2     1  UNL1       -0.1686
     18 O          62.4423   78.6675   11.7892 O.2     1  UNL1       -0.1686
     19 C          64.8991   90.3165   13.4698 C.ar    1  UNL1        0.2206
     20 N          64.4642   91.2557   12.3840 N.ar    1  UNL1       -0.2123
     21 C          64.9158   92.6859   12.4041 C.ar    1  UNL1        0.1014
     22 C          65.8022   93.1771   13.5101 C.ar    1  UNL1        0.0479
     23 C          66.2371   92.2380   14.5958 C.ar    1  UNL1        0.1553
     24 N          65.7856   90.8077   14.5756 N.ar    1  UNL1       -0.2099
     25 C          67.1236   92.7292   15.7017 C.3     1  UNL1        0.4348
     26 F          68.0100   93.2204   16.8075 F       1  UNL1       -0.1644
     27 F          68.3112   92.6383   14.7899 F       1  UNL1       -0.1644
     28 F          65.9359   92.8200   16.6134 F       1  UNL1       -0.1644
     29 C          66.2538   94.6074   13.5302 C.3     1  UNL1        0.1666
     30 O          66.0419   95.4778   12.3270 O.3     1  UNL1       -0.3771
     31 H          66.5802   95.1480   11.5906 H       1  UNL1        0.2109
     32 C          62.7499   88.9070   10.1366 C.3     1  UNL1        0.0021
     33 C          62.5198   89.0823   11.6084 C.3     1  UNL1        0.0241
     34 C          61.4555   90.0209   12.0946 C.3     1  UNL1        0.0021
@<TRIPOS>BOND
     1    32    33    1
     2    33    34    1
     3     1    33    1
     4     1     2    1
     5     2     3   ar
     6     3     4   ar
     7     4     9    1
     8     9    10   ar
     9    10    11   ar
    10    11    12   ar
    11    12    13   ar
    12    13    15    1
    13    15    16    1
    14    15    17    2
    15    15    18    2
    16    13    14   ar
    17     4     5   ar
    18     5     6   ar
    19     6     7    1
    20     7     8    1
    21     8    19    1
    22    19    20   ar
    23    20    21   ar
    24    21    22   ar
    25    22    29    1
    26    29    30    1
    27    22    23   ar
    28    23    25    1
    29    25    26    1
    30    25    27    1
    31    25    28    1
    32    23    24   ar
    33     8     1    1
    34    24    19   ar
    35     6     2   ar
    36    14     9   ar
    37    30    31    1
@<TRIPOS>MOLECULE
*****
 34 37 0 0 0
SMALL
GASTEIGER

@<TRIPOS>ATOM
      1 C          60.9011   88.6368    9.7298 C.3     1  UNL1        0.1174
      2 C          61.4416   87.4291   10.4364 C.ar    1  UNL1        0.0961
      3 N          62.1422   86.9617   11.6777 N.ar    1  UNL1       -0.1681
      4 N          62.3161   85.4750   11.5797 N.ar    1  UNL1       -0.2287
      5 C          61.7231   85.0236   10.2780 C.ar    1  UNL1        0.0990
      6 C          61.1827   86.2313    9.5713 C.ar    1  UNL1        0.0337
      7 C          60.4821   86.6988    8.3300 C.3     1  UNL1        0.1235
      8 N          60.3081   88.1855    8.4279 N.pl3   1  UNL1       -0.2703
      9 C          62.9686   84.5943   12.6038 C.ar    1  UNL1        0.0841
     10 C          64.0200   85.1552   13.5148 C.ar    1  UNL1        0.0192
     11 C          64.6724   84.2744   14.5389 C.ar    1  UNL1        0.0029
     12 C          64.2734   82.8328   14.6519 C.ar    1  UNL1        0.0184
     13 C          63.2220   82.2720   13.7409 C.ar    1  UNL1        0.1072
     14 C          62.5696   83.1528   12.7168 C.ar    1  UNL1        0.0375
     15 S          62.8230   80.8305   13.8538 S.O2    1  UNL1        0.0105
     16 C          62.4240   79.3890   13.9668 C.3     1  UNL1        0.1816
     17 O          61.4261   81.1844   13.4373 O.2     1  UNL1       -0.1686
     18 O          64.2199   80.4765   14.2704 O.2     1  UNL1       -0.1686
     19 C          59.6557   89.0661    7.4039 C.ar    1  UNL1        0.2206
     20 N          58.1600   89.1159    7.3010 N.ar    1  UNL1       -0.2123
     21 C          57.5076   89.9966    6.2770 C.ar    1  UNL1        0.1014
     22 C          58.3508   90.8275    5.3557 C.ar    1  UNL1        0.0479
     23 C          59.8465   90.7777    5.4586 C.ar    1  UNL1        0.1553
     24 N          60.4989   89.8970    6.4827 N.ar    1  UNL1       -0.2099
     25 C          60.6896   91.6086    4.5373 C.3     1  UNL1        0.4348
     26 F          61.5328   92.4394    3.6161 F       1  UNL1       -0.1644
     27 F          61.6050   90.4400    4.3214 F       1  UNL1       -0.1644
     28 F          59.7742   92.7771    4.7534 F       1  UNL1       -0.1644
     29 C          57.6984   91.7082    4.3317 C.3     1  UNL1        0.1666
     30 O          56.2370   92.0287    4.4399 O.3     1  UNL1       -0.3771
     31 H          55.7181   91.2192    4.3121 H       1  UNL1        0.2109
     32 C          59.7403   90.6455   10.8991 C.3     1  UNL1        0.0021
     33 C          60.9458   90.0481   10.2360 C.3     1  UNL1        0.0241
     34 C          62.1960   90.8620   10.0791 C.3     1  UNL1        0.0021
@<TRIPOS>BOND
     1    32    33    1
     2    33    34    1
     3     1    33    1
     4     1     2    1
     5     2     3   ar
     6     3     4   ar
     7     4     9    1
     8     9    10   ar
     9    10    11   ar
    10    11    12   ar
    11    12    13   ar
    12    13    15    1
    13    15    16    1
    14    15    17    2
    15    15    18    2
    16    13    14   ar
    17     4     5   ar
    18     5     6   ar
    19     6     7    1
    20     7     8    1
    21     8    19    1
    22    19    20   ar
    23    20    21   ar
    24    21    22   ar
    25    22    29    1
    26    29    30    1
    27    22    23   ar
    28    23    25    1
    29    25    26    1
    30    25    27    1
    31    25    28    1
    32    23    24   ar
    33     8     1    1
    34    24    19   ar
    35     6     2   ar
    36    14     9   ar
    37    30    31    1
@<TRIPOS>MOLECULE
*****
 34 37 0 0 0
SMALL
GASTEIGER

@<TRIPOS>ATOM
      1 C          63.5105   88.3121   12.7787 C.3     1  UNL1        0.1174
      2 C          63.3547   86.8461   13.0553 C.ar    1  UNL1        0.0961
      3 N          62.6251   85.6034   12.6387 N.ar    1  UNL1       -0.1681
      4 N          63.1027   84.4740   13.5027 N.ar    1  UNL1       -0.2287
      5 C          64.1274   85.0186   14.4531 C.ar    1  UNL1        0.0990
      6 C          64.2832   86.4847   14.1766 C.ar    1  UNL1        0.0337
      7 C          65.0127   87.7273   14.5931 C.3     1  UNL1        0.1235
      8 N          64.5352   88.8568   13.7292 N.pl3   1  UNL1       -0.2703
      9 C          62.6372   83.0500   13.4291 C.ar    1  UNL1        0.0841
     10 C          61.8523   82.4580   14.5620 C.ar    1  UNL1        0.0192
     11 C          61.3868   81.0339   14.4883 C.ar    1  UNL1        0.0029
     12 C          61.7063   80.2018   13.2819 C.ar    1  UNL1        0.0184
     13 C          62.4913   80.7938   12.1490 C.ar    1  UNL1        0.1072
     14 C          62.9567   82.2179   12.2227 C.ar    1  UNL1        0.0375
     15 S          62.8108   79.9618   10.9425 S.O2    1  UNL1        0.0105
     16 C          63.1304   79.1298    9.7360 C.3     1  UNL1        0.1816
     17 O          62.4601   78.7193   11.7063 O.2     1  UNL1       -0.1686
     18 O          63.1615   81.2042   10.1787 O.2     1  UNL1       -0.1686
     19 C          65.0007   90.2808   13.8028 C.ar    1  UNL1        0.2206
     20 N          65.0134   90.9986   15.1199 N.ar    1  UNL1       -0.2123
     21 C          65.4789   92.4226   15.1934 C.ar    1  UNL1        0.1014
     22 C          65.9316   93.1289   13.9499 C.ar    1  UNL1        0.0479
     23 C          65.9189   92.4112   12.6329 C.ar    1  UNL1        0.1553
     24 N          65.4534   90.9871   12.5593 N.ar    1  UNL1       -0.2099
     25 C          66.3716   93.1175   11.3894 C.3     1  UNL1        0.4348
     26 F          66.8244   93.8238   10.1460 F       1  UNL1       -0.1644
     27 F          67.7883   92.7178   11.6783 F       1  UNL1       -0.1644
     28 F          64.9550   93.5172   11.1007 F       1  UNL1       -0.1644
     29 C          66.3971   94.5530   14.0235 C.3     1  UNL1        0.1666
     30 O          66.0769   95.5053   12.9097 O.3     1  UNL1       -0.3771
     31 H          66.5370   95.2256   12.1029 H       1  UNL1        0.2109
     32 C          62.2347   90.4583   12.0604 C.3     1  UNL1        0.0021
     33 C          62.7714   89.0959   11.7350 C.3     1  UNL1        0.0241
     34 C          62.5690   88.5174   10.3659 C.3     1  UNL1        0.0021
@<TRIPOS>BOND
     1    32    33    1
     2    33    34    1
     3     1    33    1
     4     1     2    1
     5     2     3   ar
     6     3     4   ar
     7     4     9    1
     8     9    10   ar
     9    10    11   ar
    10    11    12   ar
    11    12    13   ar
    12    13    15    1
    13    15    16    1
    14    15    17    2
    15    15    18    2
    16    13    14   ar
    17     4     5   ar
    18     5     6   ar
    19     6     7    1
    20     7     8    1
    21     8    19    1
    22    19    20   ar
    23    20    21   ar
    24    21    22   ar
    25    22    29    1
    26    29    30    1
    27    22    23   ar
    28    23    25    1
    29    25    26    1
    30    25    27    1
    31    25    28    1
    32    23    24   ar
    33     8     1    1
    34    24    19   ar
    35     6     2   ar
    36    14     9   ar
    37    30    31    1
@<TRIPOS>MOLECULE
*****
 34 37 0 0 0
SMALL
GASTEIGER

@<TRIPOS>ATOM
      1 C          62.9717   86.3037   12.5507 C.3     1  UNL1        0.1174
      2 C          63.6761   87.5705   12.9367 C.ar    1  UNL1        0.0961
      3 N          63.9721   88.9753   12.5020 N.ar    1  UNL1       -0.1681
      4 N          64.8157   89.6202   13.5613 N.ar    1  UNL1       -0.2287
      5 C          65.0412   88.6141   14.6507 C.ar    1  UNL1        0.0990
      6 C          64.3368   87.3473   14.2647 C.ar    1  UNL1        0.0337
      7 C          64.0408   85.9425   14.6995 C.3     1  UNL1        0.1235
      8 N          63.1971   85.2974   13.6401 N.pl3   1  UNL1       -0.2703
      9 C          65.3417   91.0248   13.5357 C.ar    1  UNL1        0.0841
     10 C          64.8267   92.0001   12.5191 C.ar    1  UNL1        0.0192
     11 C          65.3527   93.4047   12.4937 C.ar    1  UNL1        0.0029
     12 C          66.3936   93.8339   13.4847 C.ar    1  UNL1        0.0184
     13 C          66.9086   92.8586   14.5013 C.ar    1  UNL1        0.1072
     14 C          66.3826   91.4540   14.5268 C.ar    1  UNL1        0.0375
     15 S          67.9496   93.2877   15.4923 S.O2    1  UNL1        0.0105
     16 C          68.9906   93.7168   16.4833 C.3     1  UNL1        0.1816
     17 O          66.8822   93.4873   16.5271 O.2     1  UNL1       -0.1686
     18 O          69.0170   93.0880   14.4575 O.2     1  UNL1       -0.1686
     19 C          62.6712   83.8930   13.6657 C.ar    1  UNL1        0.2206
     20 N          61.8647   83.4153   14.8368 N.ar    1  UNL1       -0.2123
     21 C          61.3388   82.0108   14.8624 C.ar    1  UNL1        0.1014
     22 C          61.6194   81.0838   13.7168 C.ar    1  UNL1        0.0479
     23 C          62.4258   81.5615   12.5457 C.ar    1  UNL1        0.1553
     24 N          62.9517   82.9661   12.5202 N.ar    1  UNL1       -0.2099
     25 C          62.7064   80.6346   11.4003 C.3     1  UNL1        0.4348
     26 F          62.9869   79.7076   10.2549 F       1  UNL1       -0.1644
     27 F          62.7458   79.4737   12.3495 F       1  UNL1       -0.1644
     28 F          62.6669   81.7955   10.4512 F       1  UNL1       -0.1644
     29 C          61.0935   79.6793   13.7424 C.3     1  UNL1        0.1666
     30 O          59.6830   79.4144   14.1788 O.3     1  UNL1       -0.3771
     31 H          59.5869   79.6408   15.1171 H       1  UNL1        0.2109
     32 C          62.6945   85.1475   10.2406 C.3     1  UNL1        0.0021
     33 C          62.1808   86.0819   11.2956 C.3     1  UNL1        0.0241
     34 C          60.8762   86.7945   11.0954 C.3     1  UNL1        0.0021
@<TRIPOS>BOND
     1    32    33    1
     2    33    34    1
     3     1    33    1
     4     1     2    1
     5     2     3   ar
     6     3     4   ar
     7     4     9    1
     8     9    10   ar
     9    10    11   ar
    10    11    12   ar
    11    12    13   ar
    12    13    15    1
    13    15    16    1
    14    15    17    2
    15    15    18    2
    16    13    14   ar
    17     4     5   ar
    18     5     6   ar
    19     6     7    1
    20     7     8    1
    21     8    19    1
    22    19    20   ar
    23    20    21   ar
    24    21    22   ar
    25    22    29    1
    26    29    30    1
    27    22    23   ar
    28    23    25    1
    29    25    26    1
    30    25    27    1
    31    25    28    1
    32    23    24   ar
    33     8     1    1
    34    24    19   ar
    35     6     2   ar
    36    14     9   ar
    37    30    31    1
