@<TRIPOS>MOLECULE
*****
 31 33 0 0 0
SMALL
GASTEIGER

@<TRIPOS>ATOM
      1 C          63.9059   89.7436   15.2206 C.3     1  UNL1        0.1488
      2 O          65.1250   92.0217   15.4921 O.2     1  UNL1       -0.2737
      3 C          64.5690   90.9429   14.6107 C.2     1  UNL1        0.2407
      4 N          64.6761   91.0633   13.1194 N.am    1  UNL1       -0.2387
      5 C          65.3393   92.2625   12.5094 C.2     1  UNL1        0.3102
      6 O          65.8953   93.3414   13.3909 O.2     1  UNL1       -0.2521
      7 N          65.4464   92.3829   11.0181 N.am    1  UNL1       -0.2673
      8 H          64.3112   90.3551   12.5409 H       1  UNL1        0.1591
      9 H          65.0815   91.6748   10.4396 H       1  UNL1        0.1564
     10 C          66.1096   93.5822   10.4082 C.ar    1  UNL1        0.0622
     11 C          65.4802   94.9370   10.5434 C.ar    1  UNL1        0.0156
     12 C          66.1433   96.1362    9.9335 C.ar    1  UNL1        0.0013
     13 C          67.4359   95.9806    9.1884 C.ar    1  UNL1        0.0009
     14 C          68.0653   94.6258    9.0533 C.ar    1  UNL1        0.0126
     15 C          67.4021   93.4266    9.6632 C.ar    1  UNL1        0.0711
     16 CL         68.0315   92.0717    9.5280 Cl      1  UNL1       -0.0810
     17 S          64.3621   88.3640   14.8484 S.3     1  UNL1       -0.0837
     18 C          63.7032   87.6368   13.7139 C.ar    1  UNL1        0.1287
     19 N          63.1550   88.4051   12.5481 N.ar    1  UNL1       -0.2361
     20 C          62.4961   87.6779   11.4136 C.ar    1  UNL1        0.0994
     21 C          61.9479   88.4463   10.2478 C.ar    1  UNL1        0.0207
     22 C          61.2891   87.7191    9.1134 C.ar    1  UNL1        0.0016
     23 C          61.1785   86.2235    9.1446 C.ar    1  UNL1        0.0016
     24 C          61.7268   85.4551   10.3104 C.ar    1  UNL1        0.0206
     25 C          62.3856   86.1823   11.4448 C.ar    1  UNL1        0.0989
     26 N          62.9339   85.4140   12.6107 N.ar    1  UNL1       -0.2380
     27 C          63.5927   86.1412   13.7451 C.ar    1  UNL1        0.1761
     28 C          64.1410   85.3728   14.9110 C.3     1  UNL1        0.4368
     29 F          64.6893   84.6045   16.0767 F       1  UNL1       -0.1643
     30 F          65.4926   85.3510   14.2609 F       1  UNL1       -0.1643
     31 F          62.7894   85.3946   15.5610 F       1  UNL1       -0.1643
@<TRIPOS>BOND
     1     2     3    2
     2     3     1    1
     3     1    17    1
     4    17    18    1
     5    18    19   ar
     6    19    20   ar
     7    20    21   ar
     8    21    22   ar
     9    22    23   ar
    10    23    24   ar
    11    24    25   ar
    12    25    26   ar
    13    26    27   ar
    14    27    28    1
    15    28    29    1
    16    28    30    1
    17    28    31    1
    18     3     4   am
    19     4     5   am
    20     5     6    2
    21     5     7   am
    22     7    10    1
    23    10    11   ar
    24    11    12   ar
    25    12    13   ar
    26    13    14   ar
    27    14    15   ar
    28    15    16    1
    29    27    18   ar
    30    15    10   ar
    31    25    20   ar
    32     4     8    1
    33     7     9    1
@<TRIPOS>MOLECULE
*****
 31 33 0 0 0
SMALL
GASTEIGER

@<TRIPOS>ATOM
      1 C          60.0720   89.3839   12.1659 C.3     1  UNL1        0.1488
      2 O          61.9088   90.8163   11.0152 O.2     1  UNL1       -0.2737
      3 C          61.3936   90.0911   12.2229 C.2     1  UNL1        0.2407
      4 N          62.1999   90.0731   13.4876 N.am    1  UNL1       -0.2387
      5 C          63.5215   90.7803   13.5446 C.2     1  UNL1        0.3102
      6 O          64.0367   91.5056   12.3368 O.2     1  UNL1       -0.2521
      7 N          64.3278   90.7623   14.8093 N.am    1  UNL1       -0.2673
      8 H          61.8617   89.5971   14.2802 H       1  UNL1        0.1591
      9 H          63.9897   90.2863   15.6020 H       1  UNL1        0.1564
     10 C          65.6495   91.4696   14.8662 C.ar    1  UNL1        0.0622
     11 C          66.6670   91.2458   13.7871 C.ar    1  UNL1        0.0156
     12 C          67.9885   91.9530   13.8441 C.ar    1  UNL1        0.0013
     13 C          68.2925   92.8840   14.9802 C.ar    1  UNL1        0.0009
     14 C          67.2750   93.1078   16.0594 C.ar    1  UNL1        0.0126
     15 C          65.9535   92.4006   16.0024 C.ar    1  UNL1        0.0711
     16 CL         64.9359   92.6244   17.0815 Cl      1  UNL1       -0.0810
     17 S          59.7438   88.5004   10.9989 S.3     1  UNL1       -0.0837
     18 C          60.6729   87.3863   10.6171 C.ar    1  UNL1        0.1287
     19 N          61.4050   86.6225   11.6804 N.ar    1  UNL1       -0.2361
     20 C          62.3340   85.5084   11.2985 C.ar    1  UNL1        0.0994
     21 C          63.0661   84.7446   12.3618 C.ar    1  UNL1        0.0207
     22 C          63.9950   83.6306   11.9799 C.ar    1  UNL1        0.0016
     23 C          64.1920   83.2804   10.5348 C.ar    1  UNL1        0.0016
     24 C          63.4599   84.0442    9.4714 C.ar    1  UNL1        0.0206
     25 C          62.5310   85.1582    9.8533 C.ar    1  UNL1        0.0989
     26 N          61.7988   85.9221    8.7900 N.ar    1  UNL1       -0.2380
     27 C          60.8698   87.0361    9.1719 C.ar    1  UNL1        0.1761
     28 C          60.1377   87.8000    8.1085 C.3     1  UNL1        0.4368
     29 F          59.4057   88.5639    7.0453 F       1  UNL1       -0.1643
     30 F          60.8948   89.0408    8.4788 F       1  UNL1       -0.1643
     31 F          59.3807   86.5591    7.7383 F       1  UNL1       -0.1643
@<TRIPOS>BOND
     1     2     3    2
     2     3     1    1
     3     1    17    1
     4    17    18    1
     5    18    19   ar
     6    19    20   ar
     7    20    21   ar
     8    21    22   ar
     9    22    23   ar
    10    23    24   ar
    11    24    25   ar
    12    25    26   ar
    13    26    27   ar
    14    27    28    1
    15    28    29    1
    16    28    30    1
    17    28    31    1
    18     3     4   am
    19     4     5   am
    20     5     6    2
    21     5     7   am
    22     7    10    1
    23    10    11   ar
    24    11    12   ar
    25    12    13   ar
    26    13    14   ar
    27    14    15   ar
    28    15    16    1
    29    27    18   ar
    30    15    10   ar
    31    25    20   ar
    32     4     8    1
    33     7     9    1
@<TRIPOS>MOLECULE
*****
 31 33 0 0 0
SMALL
GASTEIGER

@<TRIPOS>ATOM
      1 C          61.4746   89.7442   10.6574 C.3     1  UNL1        0.1488
      2 O          63.2062   91.6261   10.1992 O.2     1  UNL1       -0.2737
      3 C          62.6669   90.5455   11.0889 C.2     1  UNL1        0.2407
      4 N          63.3200   90.2663   12.4101 N.am    1  UNL1       -0.2387
      5 C          64.5123   91.0676   12.8416 C.2     1  UNL1        0.3102
      6 O          65.0516   92.1482   11.9519 O.2     1  UNL1       -0.2521
      7 N          65.1654   90.7883   14.1628 N.am    1  UNL1       -0.2673
      8 H          62.9660   89.5571   12.9940 H       1  UNL1        0.1591
      9 H          64.8114   90.0791   14.7467 H       1  UNL1        0.1564
     10 C          66.3578   91.5897   14.5943 C.ar    1  UNL1        0.0622
     11 C          67.6159   91.5609   13.7781 C.ar    1  UNL1        0.0156
     12 C          68.8082   92.3623   14.2096 C.ar    1  UNL1        0.0013
     13 C          68.7423   93.1923   15.4573 C.ar    1  UNL1        0.0009
     14 C          67.4842   93.2211   16.2734 C.ar    1  UNL1        0.0126
     15 C          66.2919   92.4197   15.8419 C.ar    1  UNL1        0.0711
     16 CL         65.0336   92.4484   16.6581 Cl      1  UNL1       -0.0810
     17 S          61.6659   88.4604    9.9055 S.3     1  UNL1       -0.0837
     18 C          62.2071   87.2520   10.6105 C.ar    1  UNL1        0.1287
     19 N          62.7425   87.3749   12.0062 N.ar    1  UNL1       -0.2361
     20 C          63.2837   86.1665   12.7111 C.ar    1  UNL1        0.0994
     21 C          63.8191   86.2894   14.1068 C.ar    1  UNL1        0.0207
     22 C          64.3602   85.0810   14.8117 C.ar    1  UNL1        0.0016
     23 C          64.3658   83.7496   14.1208 C.ar    1  UNL1        0.0016
     24 C          63.8304   83.6266   12.7251 C.ar    1  UNL1        0.0206
     25 C          63.2893   84.8351   12.0202 C.ar    1  UNL1        0.0989
     26 N          62.7538   84.7121   10.6244 N.ar    1  UNL1       -0.2380
     27 C          62.2127   85.9206    9.9196 C.ar    1  UNL1        0.1761
     28 C          61.6772   85.7976    8.5238 C.3     1  UNL1        0.4368
     29 F          61.1417   85.6747    7.1280 F       1  UNL1       -0.1643
     30 F          63.0781   85.7237    7.9929 F       1  UNL1       -0.1643
     31 F          60.2763   85.8715    9.0547 F       1  UNL1       -0.1643
@<TRIPOS>BOND
     1     2     3    2
     2     3     1    1
     3     1    17    1
     4    17    18    1
     5    18    19   ar
     6    19    20   ar
     7    20    21   ar
     8    21    22   ar
     9    22    23   ar
    10    23    24   ar
    11    24    25   ar
    12    25    26   ar
    13    26    27   ar
    14    27    28    1
    15    28    29    1
    16    28    30    1
    17    28    31    1
    18     3     4   am
    19     4     5   am
    20     5     6    2
    21     5     7   am
    22     7    10    1
    23    10    11   ar
    24    11    12   ar
    25    12    13   ar
    26    13    14   ar
    27    14    15   ar
    28    15    16    1
    29    27    18   ar
    30    15    10   ar
    31    25    20   ar
    32     4     8    1
    33     7     9    1
@<TRIPOS>MOLECULE
*****
 31 33 0 0 0
SMALL
GASTEIGER

@<TRIPOS>ATOM
      1 C          61.2764   89.1477   11.2685 C.3     1  UNL1        0.1488
      2 O          61.5677   89.9336   13.7276 O.2     1  UNL1       -0.2737
      3 C          62.1052   89.8028   12.3334 C.2     1  UNL1        0.2407
      4 N          63.4714   90.3271   12.0040 N.am    1  UNL1       -0.2387
      5 C          64.3002   90.9822   13.0688 C.2     1  UNL1        0.3102
      6 O          63.7627   91.1130   14.4632 O.2     1  UNL1       -0.2521
      7 N          65.6664   91.5065   12.7395 N.am    1  UNL1       -0.2673
      8 H          63.8242   90.2412   11.0889 H       1  UNL1        0.1591
      9 H          66.0192   91.4206   11.8244 H       1  UNL1        0.1564
     10 C          66.4952   92.1616   13.8044 C.ar    1  UNL1        0.0622
     11 C          67.0592   91.3414   14.9265 C.ar    1  UNL1        0.0156
     12 C          67.8879   91.9965   15.9914 C.ar    1  UNL1        0.0013
     13 C          68.1526   93.4718   15.9341 C.ar    1  UNL1        0.0009
     14 C          67.5887   94.2920   14.8120 C.ar    1  UNL1        0.0126
     15 C          66.7600   93.6369   13.7472 C.ar    1  UNL1        0.0711
     16 CL         66.1960   94.4571   12.6250 Cl      1  UNL1       -0.0810
     17 S          61.9033   88.1553   10.3346 S.3     1  UNL1       -0.0837
     18 C          62.3214   86.8074   10.8430 C.ar    1  UNL1        0.1287
     19 N          62.8077   86.6557   12.2539 N.ar    1  UNL1       -0.2361
     20 C          63.2257   85.3078   12.7623 C.ar    1  UNL1        0.0994
     21 C          63.7120   85.1561   14.1731 C.ar    1  UNL1        0.0207
     22 C          64.1300   83.8082   14.6814 C.ar    1  UNL1        0.0016
     23 C          64.0618   82.6120   13.7789 C.ar    1  UNL1        0.0016
     24 C          63.5756   82.7637   12.3681 C.ar    1  UNL1        0.0206
     25 C          63.1575   84.1116   11.8598 C.ar    1  UNL1        0.0989
     26 N          62.6713   84.2634   10.4489 N.ar    1  UNL1       -0.2380
     27 C          62.2532   85.6112    9.9405 C.ar    1  UNL1        0.1761
     28 C          61.7670   85.7630    8.5296 C.3     1  UNL1        0.4368
     29 F          61.2807   85.9147    7.1188 F       1  UNL1       -0.1643
     30 F          60.3504   85.7969    9.0215 F       1  UNL1       -0.1643
     31 F          63.1836   85.7291    8.0377 F       1  UNL1       -0.1643
@<TRIPOS>BOND
     1     2     3    2
     2     3     1    1
     3     1    17    1
     4    17    18    1
     5    18    19   ar
     6    19    20   ar
     7    20    21   ar
     8    21    22   ar
     9    22    23   ar
    10    23    24   ar
    11    24    25   ar
    12    25    26   ar
    13    26    27   ar
    14    27    28    1
    15    28    29    1
    16    28    30    1
    17    28    31    1
    18     3     4   am
    19     4     5   am
    20     5     6    2
    21     5     7   am
    22     7    10    1
    23    10    11   ar
    24    11    12   ar
    25    12    13   ar
    26    13    14   ar
    27    14    15   ar
    28    15    16    1
    29    27    18   ar
    30    15    10   ar
    31    25    20   ar
    32     4     8    1
    33     7     9    1
@<TRIPOS>MOLECULE
*****
 31 33 0 0 0
SMALL
GASTEIGER

@<TRIPOS>ATOM
      1 C          63.6238   88.5689   14.9299 C.3     1  UNL1        0.1488
      2 O          62.8149   89.6757   12.7231 O.2     1  UNL1       -0.2737
      3 C          63.8164   89.5761   13.8353 C.2     1  UNL1        0.2407
      4 N          65.0106   90.4837   13.8528 N.am    1  UNL1       -0.2387
      5 C          65.2032   91.4909   12.7581 C.2     1  UNL1        0.3102
      6 O          64.2017   91.5906   11.6458 O.2     1  UNL1       -0.2521
      7 N          66.3973   92.3985   12.7756 N.am    1  UNL1       -0.2673
      8 H          65.6679   90.4183   14.5828 H       1  UNL1        0.1591
      9 H          67.0546   92.3331   13.5056 H       1  UNL1        0.1564
     10 C          66.5899   93.4058   11.6809 C.ar    1  UNL1        0.0622
     11 C          66.0232   94.7871   11.8245 C.ar    1  UNL1        0.0156
     12 C          66.2158   95.7943   10.7298 C.ar    1  UNL1        0.0013
     13 C          66.9751   95.4201    9.4914 C.ar    1  UNL1        0.0009
     14 C          67.5418   94.0388    9.3478 C.ar    1  UNL1        0.0126
     15 C          67.3492   93.0316   10.4426 C.ar    1  UNL1        0.0711
     16 CL         67.9159   91.6501   10.2990 Cl      1  UNL1       -0.0810
     17 S          64.4662   87.3283   14.9644 S.3     1  UNL1       -0.0837
     18 C          63.8260   85.9820   14.7974 C.ar    1  UNL1        0.1287
     19 N          63.9396   85.2544   13.4907 N.ar    1  UNL1       -0.2361
     20 C          63.2993   83.9082   13.3236 C.ar    1  UNL1        0.0994
     21 C          63.4130   83.1806   12.0169 C.ar    1  UNL1        0.0207
     22 C          62.7727   81.8344   11.8499 C.ar    1  UNL1        0.0016
     23 C          62.0188   81.2159   12.9897 C.ar    1  UNL1        0.0016
     24 C          61.9052   81.9435   14.2965 C.ar    1  UNL1        0.0206
     25 C          62.5454   83.2897   14.4634 C.ar    1  UNL1        0.0989
     26 N          62.4318   84.0174   15.7702 N.ar    1  UNL1       -0.2380
     27 C          63.0721   85.3635   15.9372 C.ar    1  UNL1        0.1761
     28 C          62.9585   86.0912   17.2439 C.3     1  UNL1        0.4368
     29 F          62.8448   86.8189   18.5506 F       1  UNL1       -0.1643
     30 F          61.5643   86.5141   16.8872 F       1  UNL1       -0.1643
     31 F          64.3527   85.6684   17.6007 F       1  UNL1       -0.1643
@<TRIPOS>BOND
     1     2     3    2
     2     3     1    1
     3     1    17    1
     4    17    18    1
     5    18    19   ar
     6    19    20   ar
     7    20    21   ar
     8    21    22   ar
     9    22    23   ar
    10    23    24   ar
    11    24    25   ar
    12    25    26   ar
    13    26    27   ar
    14    27    28    1
    15    28    29    1
    16    28    30    1
    17    28    31    1
    18     3     4   am
    19     4     5   am
    20     5     6    2
    21     5     7   am
    22     7    10    1
    23    10    11   ar
    24    11    12   ar
    25    12    13   ar
    26    13    14   ar
    27    14    15   ar
    28    15    16    1
    29    27    18   ar
    30    15    10   ar
    31    25    20   ar
    32     4     8    1
    33     7     9    1
@<TRIPOS>MOLECULE
*****
 31 33 0 0 0
SMALL
GASTEIGER

@<TRIPOS>ATOM
      1 C          63.8489   82.1274   10.5272 C.3     1  UNL1        0.1488
      2 O          63.7064   83.9995    8.7315 O.2     1  UNL1       -0.2737
      3 C          63.4495   83.5171   10.1284 C.2     1  UNL1        0.2407
      4 N          62.7931   84.4243   11.1264 N.am    1  UNL1       -0.2387
      5 C          62.3936   85.8140   10.7275 C.2     1  UNL1        0.3102
      6 O          62.6505   86.2965    9.3306 O.2     1  UNL1       -0.2521
      7 N          61.7372   86.7213   11.7255 N.am    1  UNL1       -0.2673
      8 H          62.6244   84.1077   12.0432 H       1  UNL1        0.1591
      9 H          61.5686   86.4047   12.6423 H       1  UNL1        0.1564
     10 C          61.3377   88.1111   11.3266 C.ar    1  UNL1        0.0622
     11 C          60.0897   88.3316   10.5244 C.ar    1  UNL1        0.0156
     12 C          59.6903   89.7213   10.1255 C.ar    1  UNL1        0.0013
     13 C          60.5389   90.8905   10.5289 C.ar    1  UNL1        0.0009
     14 C          61.7870   90.6700   11.3311 C.ar    1  UNL1        0.0126
     15 C          62.1864   89.2803   11.7300 C.ar    1  UNL1        0.0711
     16 CL         63.4346   89.0597   12.5323 Cl      1  UNL1       -0.0810
     17 S          64.4396   81.8767   11.8831 S.3     1  UNL1       -0.0837
     18 C          63.9601   82.6632   13.0670 C.ar    1  UNL1        0.1287
     19 N          64.5004   84.0390   13.3222 N.ar    1  UNL1       -0.2361
     20 C          64.0209   84.8254   14.5062 C.ar    1  UNL1        0.0994
     21 C          64.5611   86.2013   14.7613 C.ar    1  UNL1        0.0207
     22 C          64.0817   86.9876   15.9452 C.ar    1  UNL1        0.0016
     23 C          63.0620   86.3981   16.8740 C.ar    1  UNL1        0.0016
     24 C          62.5217   85.0222   16.6189 C.ar    1  UNL1        0.0206
     25 C          63.0012   84.2359   15.4350 C.ar    1  UNL1        0.0989
     26 N          62.4609   82.8600   15.1798 N.ar    1  UNL1       -0.2380
     27 C          62.9404   82.0736   13.9959 C.ar    1  UNL1        0.1761
     28 C          62.4002   80.6977   13.7407 C.3     1  UNL1        0.4368
     29 F          61.8599   79.3219   13.4855 F       1  UNL1       -0.1643
     30 F          61.1702   81.2951   13.1241 F       1  UNL1       -0.1643
     31 F          63.6302   80.1004   14.3572 F       1  UNL1       -0.1643
@<TRIPOS>BOND
     1     2     3    2
     2     3     1    1
     3     1    17    1
     4    17    18    1
     5    18    19   ar
     6    19    20   ar
     7    20    21   ar
     8    21    22   ar
     9    22    23   ar
    10    23    24   ar
    11    24    25   ar
    12    25    26   ar
    13    26    27   ar
    14    27    28    1
    15    28    29    1
    16    28    30    1
    17    28    31    1
    18     3     4   am
    19     4     5   am
    20     5     6    2
    21     5     7   am
    22     7    10    1
    23    10    11   ar
    24    11    12   ar
    25    12    13   ar
    26    13    14   ar
    27    14    15   ar
    28    15    16    1
    29    27    18   ar
    30    15    10   ar
    31    25    20   ar
    32     4     8    1
    33     7     9    1
@<TRIPOS>MOLECULE
*****
 31 33 0 0 0
SMALL
GASTEIGER

@<TRIPOS>ATOM
      1 C          62.8846   84.7529   16.0980 C.3     1  UNL1        0.1488
      2 O          65.1648   85.5903   15.1766 O.2     1  UNL1       -0.2737
      3 C          63.7515   85.8688   15.5948 C.2     1  UNL1        0.2407
      4 N          63.2050   87.2631   15.5097 N.am    1  UNL1       -0.2387
      5 C          64.0719   88.3790   15.0065 C.2     1  UNL1        0.3102
      6 O          65.4853   88.1005   14.5883 O.2     1  UNL1       -0.2521
      7 N          63.5255   89.7733   14.9215 N.am    1  UNL1       -0.2673
      8 H          62.2774   87.4459   15.7842 H       1  UNL1        0.1591
      9 H          62.5979   89.9561   15.1960 H       1  UNL1        0.1564
     10 C          64.3925   90.8892   14.4182 C.ar    1  UNL1        0.0622
     11 C          65.2901   91.6277   15.3663 C.ar    1  UNL1        0.0156
     12 C          66.1570   92.7435   14.8630 C.ar    1  UNL1        0.0013
     13 C          66.1263   93.1209   13.4116 C.ar    1  UNL1        0.0009
     14 C          65.2287   92.3824   12.4635 C.ar    1  UNL1        0.0126
     15 C          64.3618   91.2666   12.9668 C.ar    1  UNL1        0.0711
     16 CL         63.4642   90.5281   12.0186 Cl      1  UNL1       -0.0810
     17 S          62.3355   83.7388   15.1389 S.3     1  UNL1       -0.0837
     18 C          62.5029   83.9362   13.6613 C.ar    1  UNL1        0.1287
     19 N          62.2700   85.2879   13.0542 N.ar    1  UNL1       -0.2361
     20 C          62.4374   85.4854   11.5766 C.ar    1  UNL1        0.0994
     21 C          62.2045   86.8371   10.9695 C.ar    1  UNL1        0.0207
     22 C          62.3719   87.0345    9.4920 C.ar    1  UNL1        0.0016
     23 C          62.7722   85.8802    8.6217 C.ar    1  UNL1        0.0016
     24 C          63.0050   84.5285    9.2288 C.ar    1  UNL1        0.0206
     25 C          62.8376   84.3311   10.7063 C.ar    1  UNL1        0.0989
     26 N          63.0705   82.9794   11.3135 N.ar    1  UNL1       -0.2380
     27 C          62.9031   82.7820   12.7910 C.ar    1  UNL1        0.1761
     28 C          63.1360   81.4302   13.3982 C.3     1  UNL1        0.4368
     29 F          63.3688   80.0785   14.0054 F       1  UNL1       -0.1643
     30 F          61.6730   81.1229   13.2751 F       1  UNL1       -0.1643
     31 F          64.5990   81.7375   13.5213 F       1  UNL1       -0.1643
@<TRIPOS>BOND
     1     2     3    2
     2     3     1    1
     3     1    17    1
     4    17    18    1
     5    18    19   ar
     6    19    20   ar
     7    20    21   ar
     8    21    22   ar
     9    22    23   ar
    10    23    24   ar
    11    24    25   ar
    12    25    26   ar
    13    26    27   ar
    14    27    28    1
    15    28    29    1
    16    28    30    1
    17    28    31    1
    18     3     4   am
    19     4     5   am
    20     5     6    2
    21     5     7   am
    22     7    10    1
    23    10    11   ar
    24    11    12   ar
    25    12    13   ar
    26    13    14   ar
    27    14    15   ar
    28    15    16    1
    29    27    18   ar
    30    15    10   ar
    31    25    20   ar
    32     4     8    1
    33     7     9    1
@<TRIPOS>MOLECULE
*****
 31 33 0 0 0
SMALL
GASTEIGER

@<TRIPOS>ATOM
      1 C          64.2058   88.9875   15.2130 C.3     1  UNL1        0.1488
      2 O          63.3625   86.9533   16.5917 O.2     1  UNL1       -0.2737
      3 C          63.7968   87.5461   15.2841 C.2     1  UNL1        0.2407
      4 N          63.8220   86.6975   14.0475 N.am    1  UNL1       -0.2387
      5 C          63.4130   85.2561   14.1185 C.2     1  UNL1        0.3102
      6 O          62.9787   84.6633   15.4263 O.2     1  UNL1       -0.2521
      7 N          63.4382   84.4075   12.8819 N.am    1  UNL1       -0.2673
      8 H          64.1070   87.0865   13.1892 H       1  UNL1        0.1591
      9 H          63.7233   84.7965   12.0236 H       1  UNL1        0.1564
     10 C          63.0292   82.9660   12.9530 C.ar    1  UNL1        0.0622
     11 C          62.2305   82.4698   14.1217 C.ar    1  UNL1        0.0156
     12 C          61.8215   81.0284   14.1928 C.ar    1  UNL1        0.0013
     13 C          62.2112   80.0832   13.0952 C.ar    1  UNL1        0.0009
     14 C          63.0100   80.5794   11.9265 C.ar    1  UNL1        0.0126
     15 C          63.4190   82.0208   11.8555 C.ar    1  UNL1        0.0711
     16 CL         64.2178   82.5170   10.6868 Cl      1  UNL1       -0.0810
     17 S          63.3061   89.9908   14.5542 S.3     1  UNL1       -0.0837
     18 C          63.8148   90.8169   13.4101 C.ar    1  UNL1        0.1287
     19 N          64.8105   91.9107   13.6593 N.ar    1  UNL1       -0.2361
     20 C          65.3192   92.7368   12.5152 C.ar    1  UNL1        0.0994
     21 C          66.3149   93.8306   12.7643 C.ar    1  UNL1        0.0207
     22 C          66.8235   94.6566   11.6203 C.ar    1  UNL1        0.0016
     23 C          66.3364   94.3889   10.2271 C.ar    1  UNL1        0.0016
     24 C          65.3407   93.2951    9.9779 C.ar    1  UNL1        0.0206
     25 C          64.8321   92.4691   11.1220 C.ar    1  UNL1        0.0989
     26 N          63.8363   91.3752   10.8728 N.ar    1  UNL1       -0.2380
     27 C          63.3277   90.5492   12.0169 C.ar    1  UNL1        0.1761
     28 C          62.3319   89.4553   11.7678 C.3     1  UNL1        0.4368
     29 F          61.3362   88.3616   11.5186 F       1  UNL1       -0.1643
     30 F          61.2221   90.4643   11.7738 F       1  UNL1       -0.1643
     31 F          63.4418   88.4463   11.7617 F       1  UNL1       -0.1643
@<TRIPOS>BOND
     1     2     3    2
     2     3     1    1
     3     1    17    1
     4    17    18    1
     5    18    19   ar
     6    19    20   ar
     7    20    21   ar
     8    21    22   ar
     9    22    23   ar
    10    23    24   ar
    11    24    25   ar
    12    25    26   ar
    13    26    27   ar
    14    27    28    1
    15    28    29    1
    16    28    30    1
    17    28    31    1
    18     3     4   am
    19     4     5   am
    20     5     6    2
    21     5     7   am
    22     7    10    1
    23    10    11   ar
    24    11    12   ar
    25    12    13   ar
    26    13    14   ar
    27    14    15   ar
    28    15    16    1
    29    27    18   ar
    30    15    10   ar
    31    25    20   ar
    32     4     8    1
    33     7     9    1
@<TRIPOS>MOLECULE
*****
 31 33 0 0 0
SMALL
GASTEIGER

@<TRIPOS>ATOM
      1 C          64.2052   89.9603   14.5456 C.3     1  UNL1        0.1488
      2 O          62.8196   88.9281   12.6054 O.2     1  UNL1       -0.2737
      3 C          63.7430   88.7591   13.7752 C.2     1  UNL1        0.2407
      4 N          64.2044   87.3888   14.1747 N.am    1  UNL1       -0.2387
      5 C          63.7422   86.1876   13.4044 C.2     1  UNL1        0.3102
      6 O          62.8186   86.3566   12.2345 O.2     1  UNL1       -0.2521
      7 N          64.2035   84.8174   13.8039 N.am    1  UNL1       -0.2673
      8 H          64.8105   87.2779   14.9425 H       1  UNL1        0.1591
      9 H          64.8096   84.7064   14.5717 H       1  UNL1        0.1564
     10 C          63.7413   83.6161   13.0335 C.ar    1  UNL1        0.0622
     11 C          64.3233   83.3219   11.6827 C.ar    1  UNL1        0.0156
     12 C          63.8611   82.1207   10.9124 C.ar    1  UNL1        0.0013
     13 C          62.8168   81.2138   11.4928 C.ar    1  UNL1        0.0009
     14 C          62.2348   81.5080   12.8436 C.ar    1  UNL1        0.0126
     15 C          62.6970   82.7092   13.6139 C.ar    1  UNL1        0.0711
     16 CL         62.1149   83.0035   14.9648 Cl      1  UNL1       -0.0810
     17 S          65.6070   90.4664   14.3757 S.3     1  UNL1       -0.0837
     18 C          65.8492   91.8094   13.7529 C.ar    1  UNL1        0.1287
     19 N          65.3426   92.0975   12.3707 N.ar    1  UNL1       -0.2361
     20 C          65.5848   93.4404   11.7479 C.ar    1  UNL1        0.0994
     21 C          65.0782   93.7285   10.3658 C.ar    1  UNL1        0.0207
     22 C          65.3204   95.0714    9.7430 C.ar    1  UNL1        0.0016
     23 C          66.0692   96.1262   10.5023 C.ar    1  UNL1        0.0016
     24 C          66.5758   95.8382   11.8845 C.ar    1  UNL1        0.0206
     25 C          66.3336   94.4953   12.5072 C.ar    1  UNL1        0.0989
     26 N          66.8402   94.2071   13.8894 N.ar    1  UNL1       -0.2380
     27 C          66.5980   92.8642   14.5122 C.ar    1  UNL1        0.1761
     28 C          67.1046   92.5761   15.8944 C.3     1  UNL1        0.4368
     29 F          67.6112   92.2880   17.2765 F       1  UNL1       -0.1643
     30 F          68.4608   92.2674   15.3329 F       1  UNL1       -0.1643
     31 F          65.7484   92.8848   16.4559 F       1  UNL1       -0.1643
@<TRIPOS>BOND
     1     2     3    2
     2     3     1    1
     3     1    17    1
     4    17    18    1
     5    18    19   ar
     6    19    20   ar
     7    20    21   ar
     8    21    22   ar
     9    22    23   ar
    10    23    24   ar
    11    24    25   ar
    12    25    26   ar
    13    26    27   ar
    14    27    28    1
    15    28    29    1
    16    28    30    1
    17    28    31    1
    18     3     4   am
    19     4     5   am
    20     5     6    2
    21     5     7   am
    22     7    10    1
    23    10    11   ar
    24    11    12   ar
    25    12    13   ar
    26    13    14   ar
    27    14    15   ar
    28    15    16    1
    29    27    18   ar
    30    15    10   ar
    31    25    20   ar
    32     4     8    1
    33     7     9    1
