@<TRIPOS>MOLECULE
*****
 31 34 0 0 0
SMALL
GASTEIGER

@<TRIPOS>ATOM
      1 C          62.3013   88.2573   11.0654 C.ar    1  UNL1        0.0755
      2 C          61.4518   87.9482    9.8685 C.ar    1  UNL1        0.1035
      3 N          61.0344   86.5346    9.5900 N.ar    1  UNL1       -0.2406
      4 C          61.4664   85.4302   10.5086 C.ar    1  UNL1        0.1180
      5 C          62.3159   85.7394   11.7055 C.ar    1  UNL1        0.1036
      6 C          62.7334   87.1529   11.9839 C.ar    1  UNL1        0.0460
      7 C          63.5661   87.1532   13.2316 C.ar    1  UNL1        0.1222
      8 N          63.6633   85.7397   13.7242 N.ar    1  UNL1       -0.1635
      9 N          62.8906   84.8660   12.7811 N.ar    1  UNL1       -0.2281
     10 C          62.7221   83.3797   12.8937 C.ar    1  UNL1        0.0830
     11 C          63.0550   82.4967   11.7277 C.ar    1  UNL1        0.0215
     12 C          62.8865   81.0105   11.8403 C.ar    1  UNL1        0.0312
     13 C          62.3853   80.4072   13.1189 C.ar    1  UNL1        0.1402
     14 F          62.2168   78.9209   13.2315 F       1  UNL1       -0.2042
     15 C          62.0524   81.2902   14.2849 C.ar    1  UNL1        0.0312
     16 C          62.2209   82.7765   14.1723 C.ar    1  UNL1        0.0215
     17 N          63.2369   90.5330   10.2310 N.am    1  UNL1       -0.2969
     18 C          62.7189   89.6709   11.3439 C.2     1  UNL1        0.2477
     19 O          62.6184   90.2224   12.7352 O.2     1  UNL1       -0.2701
     20 H          63.3028   90.1710    9.3178 H       1  UNL1        0.1501
     21 C          63.6544   91.9465   10.5094 C.3     1  UNL1        0.1167
     22 C          66.5456   92.6015   13.1480 C.ar    1  UNL1        0.1860
     23 C          65.1896   92.3196   12.5719 C.ar    1  UNL1        0.0353
     24 C          65.0104   92.2284   11.0854 C.ar    1  UNL1        0.0018
     25 C          66.1871   92.4192   10.1750 C.ar    1  UNL1        0.0182
     26 C          67.5431   92.7011   10.7510 C.ar    1  UNL1        0.1001
     27 N          67.7224   92.7922   12.2375 N.ar    1  UNL1       -0.2257
     28 C          66.9042   92.7837   16.1208 C.3     1  UNL1        0.1834
     29 S          66.7249   92.6926   14.6344 S.O2    1  UNL1        0.0268
     30 O          65.2714   92.3772   14.8290 O.2     1  UNL1       -0.1671
     31 O          68.1784   93.0079   14.4398 O.2     1  UNL1       -0.1671
@<TRIPOS>BOND
     1    28    29    1
     2    29    30    2
     3    29    31    2
     4    29    22    1
     5    22    23   ar
     6    23    24   ar
     7    24    21    1
     8    21    17    1
     9    17    18   am
    10    18    19    2
    11    18     1    1
    12     1     2   ar
    13     2     3   ar
    14     3     4   ar
    15     4     5   ar
    16     5     6   ar
    17     6     7   ar
    18     7     8   ar
    19     8     9   ar
    20     9    10    1
    21    10    11   ar
    22    11    12   ar
    23    12    13   ar
    24    13    14    1
    25    13    15   ar
    26    15    16   ar
    27    24    25   ar
    28    25    26   ar
    29    26    27   ar
    30    27    22   ar
    31     6     1   ar
    32    16    10   ar
    33     9     5   ar
    34    17    20    1
@<TRIPOS>MOLECULE
*****
 31 34 0 0 0
SMALL
GASTEIGER

@<TRIPOS>ATOM
      1 C          62.3274   88.1588   10.9502 C.ar    1  UNL1        0.0755
      2 C          61.5004   87.8340    9.7417 C.ar    1  UNL1        0.1035
      3 N          61.0860   86.4172    9.4753 N.ar    1  UNL1       -0.2406
      4 C          61.4986   85.3253   10.4174 C.ar    1  UNL1        0.1180
      5 C          62.3256   85.6502   11.6259 C.ar    1  UNL1        0.1036
      6 C          62.7400   87.0669   11.8923 C.ar    1  UNL1        0.0460
      7 C          63.5487   87.0836   13.1556 C.ar    1  UNL1        0.1222
      8 N          63.6341   85.6771   13.6698 N.ar    1  UNL1       -0.1635
      9 N          62.8781   84.7912   12.7245 N.ar    1  UNL1       -0.2281
     10 C          62.7051   83.3070   12.8547 C.ar    1  UNL1        0.0830
     11 C          63.0629   82.4068   11.7095 C.ar    1  UNL1        0.0215
     12 C          62.8899   80.9225   11.8398 C.ar    1  UNL1        0.0312
     13 C          62.3591   80.3384   13.1154 C.ar    1  UNL1        0.1402
     14 F          62.1861   78.8541   13.2457 F       1  UNL1       -0.2042
     15 C          62.0014   81.2386   14.2606 C.ar    1  UNL1        0.0312
     16 C          62.1744   82.7228   14.1303 C.ar    1  UNL1        0.0215
     17 N          63.0802   90.0082   12.6126 N.am    1  UNL1       -0.2969
     18 C          62.7419   89.5757   11.2167 C.2     1  UNL1        0.2477
     19 O          62.8180   90.5598   10.0873 O.2     1  UNL1       -0.2701
     20 H          63.0302   89.3622   13.3538 H       1  UNL1        0.1501
     21 C          63.4946   91.4249   12.8791 C.3     1  UNL1        0.1167
     22 C          66.8214   92.9120   11.3071 C.ar    1  UNL1        0.1860
     23 C          65.3853   92.5085   11.4644 C.ar    1  UNL1        0.0353
     24 C          64.9307   91.8285   12.7218 C.ar    1  UNL1        0.0018
     25 C          65.9122   91.5521   13.8219 C.ar    1  UNL1        0.0182
     26 C          67.3483   91.9556   13.6646 C.ar    1  UNL1        0.1001
     27 N          67.8030   92.6356   12.4073 N.ar    1  UNL1       -0.2257
     28 C          67.7307   94.2719    8.7924 C.3     1  UNL1        0.1834
     29 S          67.2761   93.5920   10.0498 S.O2    1  UNL1        0.0268
     30 O          68.5060   92.7336   10.0303 O.2     1  UNL1       -0.1671
     31 O          66.0461   94.4504   10.0693 O.2     1  UNL1       -0.1671
@<TRIPOS>BOND
     1    28    29    1
     2    29    30    2
     3    29    31    2
     4    29    22    1
     5    22    23   ar
     6    23    24   ar
     7    24    21    1
     8    21    17    1
     9    17    18   am
    10    18    19    2
    11    18     1    1
    12     1     2   ar
    13     2     3   ar
    14     3     4   ar
    15     4     5   ar
    16     5     6   ar
    17     6     7   ar
    18     7     8   ar
    19     8     9   ar
    20     9    10    1
    21    10    11   ar
    22    11    12   ar
    23    12    13   ar
    24    13    14    1
    25    13    15   ar
    26    15    16   ar
    27    24    25   ar
    28    25    26   ar
    29    26    27   ar
    30    27    22   ar
    31     6     1   ar
    32    16    10   ar
    33     9     5   ar
    34    17    20    1
@<TRIPOS>MOLECULE
*****
 31 34 0 0 0
SMALL
GASTEIGER

@<TRIPOS>ATOM
      1 C          63.8183   87.1169   13.7811 C.ar    1  UNL1        0.0755
      2 C          64.6464   86.6439   14.9389 C.ar    1  UNL1        0.1035
      3 N          64.9036   85.1783   15.1277 N.ar    1  UNL1       -0.2406
      4 C          64.3326   84.1857   14.1588 C.ar    1  UNL1        0.1180
      5 C          63.5045   84.6587   13.0011 C.ar    1  UNL1        0.1036
      6 C          63.2473   86.1243   12.8122 C.ar    1  UNL1        0.0460
      7 C          62.3996   86.2920   11.5861 C.ar    1  UNL1        0.1222
      8 N          62.1329   84.9300   11.0172 N.ar    1  UNL1       -0.1635
      9 N          62.8157   83.9205   11.8917 N.ar    1  UNL1       -0.2281
     10 C          62.8107   82.4339   11.6919 C.ar    1  UNL1        0.0830
     11 C          63.1968   81.8543   10.3634 C.ar    1  UNL1        0.0215
     12 C          63.1918   80.3677   10.1637 C.ar    1  UNL1        0.0312
     13 C          62.8007   79.4606   11.2924 C.ar    1  UNL1        0.1402
     14 F          62.7957   77.9740   11.0926 F       1  UNL1       -0.2042
     15 C          62.4146   80.0402   12.6209 C.ar    1  UNL1        0.0312
     16 C          62.4196   81.5268   12.8207 C.ar    1  UNL1        0.0215
     17 N          63.5813   89.1762   12.2148 N.am    1  UNL1       -0.2969
     18 C          63.5611   88.5826   13.5922 C.2     1  UNL1        0.2477
     19 O          63.2836   89.4547   14.7807 O.2     1  UNL1       -0.2701
     20 H          63.7634   88.6038   11.4348 H       1  UNL1        0.1501
     21 C          63.3241   90.6419   12.0259 C.3     1  UNL1        0.1167
     22 C          66.3709   92.7812   13.4009 C.ar    1  UNL1        0.1860
     23 C          65.2313   91.8071   13.3507 C.ar    1  UNL1        0.0353
     24 C          64.4637   91.6159   12.0761 C.ar    1  UNL1        0.0018
     25 C          64.8358   92.3987   10.8519 C.ar    1  UNL1        0.0182
     26 C          65.9754   93.3728   10.9022 C.ar    1  UNL1        0.1001
     27 N          66.7429   93.5640   12.1766 N.ar    1  UNL1       -0.2257
     28 C          67.9059   93.1637   15.9498 C.3     1  UNL1        0.1834
     29 S          67.1384   92.9724   14.6754 S.O2    1  UNL1        0.0268
     30 O          65.8521   93.1767   15.4194 O.2     1  UNL1       -0.1671
     31 O          68.4247   92.7682   13.9313 O.2     1  UNL1       -0.1671
@<TRIPOS>BOND
     1    28    29    1
     2    29    30    2
     3    29    31    2
     4    29    22    1
     5    22    23   ar
     6    23    24   ar
     7    24    21    1
     8    21    17    1
     9    17    18   am
    10    18    19    2
    11    18     1    1
    12     1     2   ar
    13     2     3   ar
    14     3     4   ar
    15     4     5   ar
    16     5     6   ar
    17     6     7   ar
    18     7     8   ar
    19     8     9   ar
    20     9    10    1
    21    10    11   ar
    22    11    12   ar
    23    12    13   ar
    24    13    14    1
    25    13    15   ar
    26    15    16   ar
    27    24    25   ar
    28    25    26   ar
    29    26    27   ar
    30    27    22   ar
    31     6     1   ar
    32    16    10   ar
    33     9     5   ar
    34    17    20    1
@<TRIPOS>MOLECULE
*****
 31 34 0 0 0
SMALL
GASTEIGER

@<TRIPOS>ATOM
      1 C          63.7654   87.4786   13.7606 C.ar    1  UNL1        0.0755
      2 C          64.5722   87.0324   14.9437 C.ar    1  UNL1        0.1035
      3 N          64.8290   85.5718   15.1686 N.ar    1  UNL1       -0.2406
      4 C          64.2790   84.5574   14.2103 C.ar    1  UNL1        0.1180
      5 C          63.4721   85.0035   13.0271 C.ar    1  UNL1        0.1036
      6 C          63.2153   86.4641   12.8023 C.ar    1  UNL1        0.0460
      7 C          62.3908   86.6035   11.5569 C.ar    1  UNL1        0.1222
      8 N          62.1382   85.2290   11.0121 N.ar    1  UNL1       -0.1635
      9 N          62.8064   84.2401   11.9207 N.ar    1  UNL1       -0.2281
     10 C          62.8086   82.7496   11.7526 C.ar    1  UNL1        0.0830
     11 C          62.3527   81.8673   12.8767 C.ar    1  UNL1        0.0215
     12 C          62.3549   80.3768   12.7085 C.ar    1  UNL1        0.0312
     13 C          62.8130   79.7685   11.4161 C.ar    1  UNL1        0.1402
     14 F          62.8152   78.2779   11.2479 F       1  UNL1       -0.2042
     15 C          63.2689   80.6508   10.2920 C.ar    1  UNL1        0.0312
     16 C          63.2667   82.1413   10.4602 C.ar    1  UNL1        0.0215
     17 N          63.8652   89.5699   12.2223 N.am    1  UNL1       -0.2969
     18 C          63.5085   88.9393   13.5357 C.2     1  UNL1        0.2477
     19 O          62.8950   89.7692   14.6241 O.2     1  UNL1       -0.2701
     20 H          64.2679   89.0252   11.5079 H       1  UNL1        0.1501
     21 C          63.6083   91.0305   11.9973 C.3     1  UNL1        0.1167
     22 C          66.2867   93.8651   11.2613 C.ar    1  UNL1        0.1860
     23 C          65.1839   92.8693   11.0557 C.ar    1  UNL1        0.0353
     24 C          64.7111   92.0264   12.2029 C.ar    1  UNL1        0.0018
     25 C          65.3410   92.1792   13.5556 C.ar    1  UNL1        0.0182
     26 C          66.4438   93.1750   13.7612 C.ar    1  UNL1        0.1001
     27 N          66.9166   94.0180   12.6141 N.ar    1  UNL1       -0.2257
     28 C          67.2324   95.5510    8.9672 C.3     1  UNL1        0.1834
     29 S          66.7595   94.7080   10.1142 S.O2    1  UNL1        0.0268
     30 O          67.9910   93.8595    9.9983 O.2     1  UNL1       -0.1671
     31 O          65.5281   95.5566   10.2301 O.2     1  UNL1       -0.1671
@<TRIPOS>BOND
     1    28    29    1
     2    29    30    2
     3    29    31    2
     4    29    22    1
     5    22    23   ar
     6    23    24   ar
     7    24    21    1
     8    21    17    1
     9    17    18   am
    10    18    19    2
    11    18     1    1
    12     1     2   ar
    13     2     3   ar
    14     3     4   ar
    15     4     5   ar
    16     5     6   ar
    17     6     7   ar
    18     7     8   ar
    19     8     9   ar
    20     9    10    1
    21    10    11   ar
    22    11    12   ar
    23    12    13   ar
    24    13    14    1
    25    13    15   ar
    26    15    16   ar
    27    24    25   ar
    28    25    26   ar
    29    26    27   ar
    30    27    22   ar
    31     6     1   ar
    32    16    10   ar
    33     9     5   ar
    34    17    20    1
@<TRIPOS>MOLECULE
*****
 31 34 0 0 0
SMALL
GASTEIGER

@<TRIPOS>ATOM
      1 C          63.6510   87.1543   13.8689 C.ar    1  UNL1        0.0755
      2 C          63.9047   85.7338   14.2783 C.ar    1  UNL1        0.1035
      3 N          63.6519   84.6174   13.3090 N.ar    1  UNL1       -0.2406
      4 C          63.1455   84.9215   11.9302 C.ar    1  UNL1        0.1180
      5 C          62.8918   86.3420   11.5208 C.ar    1  UNL1        0.1036
      6 C          63.1445   87.4584   12.4902 C.ar    1  UNL1        0.0460
      7 C          62.8052   88.7505   11.8079 C.ar    1  UNL1        0.1222
      8 N          62.3428   88.4326   10.4168 N.ar    1  UNL1       -0.1635
      9 N          62.3962   86.9441   10.2394 N.ar    1  UNL1       -0.2281
     10 C          62.0202   86.1900    8.9985 C.ar    1  UNL1        0.0830
     11 C          60.6129   86.2483    8.4829 C.ar    1  UNL1        0.0215
     12 C          60.2368   85.4942    7.2419 C.ar    1  UNL1        0.0312
     13 C          61.2682   84.6817    6.5166 C.ar    1  UNL1        0.1402
     14 F          60.8922   83.9276    5.2757 F       1  UNL1       -0.2042
     15 C          62.6755   84.6234    7.0322 C.ar    1  UNL1        0.0312
     16 C          63.0516   85.3775    8.2731 C.ar    1  UNL1        0.0215
     17 N          64.6212   89.5082   14.3865 N.am    1  UNL1       -0.2969
     18 C          63.9038   88.2708   14.8383 C.2     1  UNL1        0.2477
     19 O          63.4392   88.1498   16.2594 O.2     1  UNL1       -0.2701
     20 H          64.9261   89.5876   13.4538 H       1  UNL1        0.1501
     21 C          64.8740   90.6247   15.3558 C.3     1  UNL1        0.1167
     22 C          66.3976   93.5466   13.1442 C.ar    1  UNL1        0.1860
     23 C          65.5682   92.3673   13.5582 C.ar    1  UNL1        0.0353
     24 C          65.7034   91.8039   14.9418 C.ar    1  UNL1        0.0018
     25 C          66.6681   92.4198   15.9114 C.ar    1  UNL1        0.0182
     26 C          67.4976   93.5990   15.4974 C.ar    1  UNL1        0.1001
     27 N          67.3623   94.1624   14.1139 N.ar    1  UNL1       -0.2257
     28 C          66.1272   94.6734   10.3771 C.3     1  UNL1        0.1834
     29 S          66.2624   94.1100   11.7607 S.O2    1  UNL1        0.0268
     30 O          66.3435   92.7256   11.1890 O.2     1  UNL1       -0.1671
     31 O          66.1814   95.4944   12.3323 O.2     1  UNL1       -0.1671
@<TRIPOS>BOND
     1    28    29    1
     2    29    30    2
     3    29    31    2
     4    29    22    1
     5    22    23   ar
     6    23    24   ar
     7    24    21    1
     8    21    17    1
     9    17    18   am
    10    18    19    2
    11    18     1    1
    12     1     2   ar
    13     2     3   ar
    14     3     4   ar
    15     4     5   ar
    16     5     6   ar
    17     6     7   ar
    18     7     8   ar
    19     8     9   ar
    20     9    10    1
    21    10    11   ar
    22    11    12   ar
    23    12    13   ar
    24    13    14    1
    25    13    15   ar
    26    15    16   ar
    27    24    25   ar
    28    25    26   ar
    29    26    27   ar
    30    27    22   ar
    31     6     1   ar
    32    16    10   ar
    33     9     5   ar
    34    17    20    1
@<TRIPOS>MOLECULE
*****
 31 34 0 0 0
SMALL
GASTEIGER

@<TRIPOS>ATOM
      1 C          62.1735   89.9339   13.0279 C.ar    1  UNL1        0.0755
      2 C          61.8800   89.4539   14.4184 C.ar    1  UNL1        0.1035
      3 N          62.8364   89.7561   15.5336 N.ar    1  UNL1       -0.2406
      4 C          64.0864   90.5382   15.2584 C.ar    1  UNL1        0.1180
      5 C          64.3800   91.0182   13.8680 C.ar    1  UNL1        0.1036
      6 C          63.4235   90.7160   12.7527 C.ar    1  UNL1        0.0460
      7 C          63.9755   91.3157   11.4934 C.ar    1  UNL1        0.1222
      8 N          65.2731   91.9885   11.8304 N.ar    1  UNL1       -0.1635
      9 N          65.5231   91.8046   13.2980 N.ar    1  UNL1       -0.2281
     10 C          66.7081   92.3172   14.0615 C.ar    1  UNL1        0.0830
     11 C          66.5052   93.1985   15.2582 C.ar    1  UNL1        0.0215
     12 C          67.6903   93.7111   16.0217 C.ar    1  UNL1        0.0312
     13 C          69.0782   93.3423   15.5886 C.ar    1  UNL1        0.1402
     14 F          70.2632   93.8549   16.3521 F       1  UNL1       -0.2042
     15 C          69.2810   92.4610   14.3920 C.ar    1  UNL1        0.0312
     16 C          68.0960   91.9484   13.6284 C.ar    1  UNL1        0.0215
     17 N          61.4495   90.2096   10.5480 N.am    1  UNL1       -0.2969
     18 C          61.2171   89.6317   11.9126 C.2     1  UNL1        0.2477
     19 O          60.0282   88.7517   12.1618 O.2     1  UNL1       -0.2701
     20 H          62.2298   90.7872   10.3845 H       1  UNL1        0.1501
     21 C          60.4931   89.9075    9.4327 C.3     1  UNL1        0.1167
     22 C          61.4478   86.1495    8.5863 C.ar    1  UNL1        0.1860
     23 C          61.5075   87.5301    9.1698 C.ar    1  UNL1        0.0353
     24 C          60.4334   88.5269    8.8492 C.ar    1  UNL1        0.0018
     25 C          59.2997   88.1431    7.9452 C.ar    1  UNL1        0.0182
     26 C          59.2399   86.7626    7.3617 C.ar    1  UNL1        0.1001
     27 N          60.3140   85.7657    7.6822 N.ar    1  UNL1       -0.2257
     28 C          63.5958   84.1559    9.2274 C.3     1  UNL1        0.1834
     29 S          62.5218   85.1527    8.9068 S.O2    1  UNL1        0.0268
     30 O          62.3086   85.3940   10.3718 O.2     1  UNL1       -0.1671
     31 O          62.7351   84.9114    7.4419 O.2     1  UNL1       -0.1671
@<TRIPOS>BOND
     1    28    29    1
     2    29    30    2
     3    29    31    2
     4    29    22    1
     5    22    23   ar
     6    23    24   ar
     7    24    21    1
     8    21    17    1
     9    17    18   am
    10    18    19    2
    11    18     1    1
    12     1     2   ar
    13     2     3   ar
    14     3     4   ar
    15     4     5   ar
    16     5     6   ar
    17     6     7   ar
    18     7     8   ar
    19     8     9   ar
    20     9    10    1
    21    10    11   ar
    22    11    12   ar
    23    12    13   ar
    24    13    14    1
    25    13    15   ar
    26    15    16   ar
    27    24    25   ar
    28    25    26   ar
    29    26    27   ar
    30    27    22   ar
    31     6     1   ar
    32    16    10   ar
    33     9     5   ar
    34    17    20    1
@<TRIPOS>MOLECULE
*****
 31 34 0 0 0
SMALL
GASTEIGER

@<TRIPOS>ATOM
      1 C          59.8060   88.3746    7.6842 C.ar    1  UNL1        0.0755
      2 C          59.5570   86.9219    7.4053 C.ar    1  UNL1        0.1035
      3 N          60.1384   85.8746    8.3080 N.ar    1  UNL1       -0.2406
      4 C          60.9688   86.2799    9.4896 C.ar    1  UNL1        0.1180
      5 C          61.2178   87.7325    9.7685 C.ar    1  UNL1        0.1036
      6 C          60.6364   88.7799    8.8658 C.ar    1  UNL1        0.0460
      7 C          61.0494   90.1238    9.3887 C.ar    1  UNL1        0.1222
      8 N          61.8860   89.9070   10.6147 N.ar    1  UNL1       -0.1635
      9 N          61.9901   88.4291   10.8494 N.ar    1  UNL1       -0.2281
     10 C          62.7356   87.7644   11.9685 C.ar    1  UNL1        0.0830
     11 C          63.4772   88.5953   12.9733 C.ar    1  UNL1        0.0215
     12 C          64.2227   87.9307   14.0924 C.ar    1  UNL1        0.0312
     13 C          64.2267   86.4351   14.2068 C.ar    1  UNL1        0.1402
     14 F          64.9722   85.7704   15.3259 F       1  UNL1       -0.2042
     15 C          63.4851   85.6042   13.2020 C.ar    1  UNL1        0.0312
     16 C          62.7396   86.2688   12.0829 C.ar    1  UNL1        0.0215
     17 N          60.1314   90.3261    6.0002 N.am    1  UNL1       -0.2969
     18 C          59.2246   89.4220    6.7814 C.2     1  UNL1        0.2477
     19 O          57.7364   89.5653    6.6599 O.2     1  UNL1       -0.2701
     20 H          61.1082   90.2320    6.0799 H       1  UNL1        0.1501
     21 C          59.5501   91.3735    5.0975 C.3     1  UNL1        0.1167
     22 C          60.6512   93.6357    2.0282 C.ar    1  UNL1        0.1860
     23 C          59.8080   93.0235    3.1072 C.ar    1  UNL1        0.0353
     24 C          60.3933   91.9856    4.0185 C.ar    1  UNL1        0.0018
     25 C          61.8218   91.5600    3.8507 C.ar    1  UNL1        0.0182
     26 C          62.6650   92.1721    2.7717 C.ar    1  UNL1        0.1001
     27 N          62.0797   93.2099    1.8605 N.ar    1  UNL1       -0.2257
     28 C          59.4807   95.7114    0.2058 C.3     1  UNL1        0.1834
     29 S          60.0660   94.6735    1.1170 S.O2    1  UNL1        0.0268
     30 O          60.1373   93.7079   -0.0286 O.2     1  UNL1       -0.1671
     31 O          59.9946   95.6391    2.2627 O.2     1  UNL1       -0.1671
@<TRIPOS>BOND
     1    28    29    1
     2    29    30    2
     3    29    31    2
     4    29    22    1
     5    22    23   ar
     6    23    24   ar
     7    24    21    1
     8    21    17    1
     9    17    18   am
    10    18    19    2
    11    18     1    1
    12     1     2   ar
    13     2     3   ar
    14     3     4   ar
    15     4     5   ar
    16     5     6   ar
    17     6     7   ar
    18     7     8   ar
    19     8     9   ar
    20     9    10    1
    21    10    11   ar
    22    11    12   ar
    23    12    13   ar
    24    13    14    1
    25    13    15   ar
    26    15    16   ar
    27    24    25   ar
    28    25    26   ar
    29    26    27   ar
    30    27    22   ar
    31     6     1   ar
    32    16    10   ar
    33     9     5   ar
    34    17    20    1
