@<TRIPOS>MOLECULE
*****
 32 36 0 0 0
SMALL
GASTEIGER

@<TRIPOS>ATOM
      1 N          61.9879   88.9422   11.2741 N.am    1  UNL1       -0.2665
      2 C          60.5846   88.9509   11.8037 C.2     1  UNL1        0.2474
      3 O          60.2650   89.6907   13.0689 O.2     1  UNL1       -0.2729
      4 H          62.1977   88.4566   10.4437 H       1  UNL1        0.1564
      5 C          65.2393   91.1356   13.4804 C.ar    1  UNL1        0.1045
      6 C          64.6716   91.7099   12.2163 C.ar    1  UNL1        0.0239
      7 C          63.5878   90.9788   11.4809 C.ar    1  UNL1        0.0379
      8 C          63.0717   89.6733   12.0095 C.ar    1  UNL1        0.1560
      9 N          63.6394   89.0989   13.2736 N.ar    1  UNL1       -0.1328
     10 N          64.7232   89.8301   14.0090 N.ar    1  UNL1       -0.1467
     11 C          69.5744   94.0601   16.4221 C.3     1  UNL1        0.0521
     12 C          68.4906   93.3290   15.6867 C.ar    1  UNL1        0.0594
     13 C          67.1470   93.1388   16.3260 C.ar    1  UNL1        0.0148
     14 C          66.0633   92.4076   15.5906 C.ar    1  UNL1        0.0043
     15 C          66.3231   91.8667   14.2158 C.ar    1  UNL1        0.0385
     16 C          67.6666   92.0569   13.5765 C.ar    1  UNL1        0.1000
     17 N          68.7504   92.7880   14.3120 N.ar    1  UNL1       -0.2481
     18 C          59.5008   88.2198   11.0683 C.3     1  UNL1        0.1775
     19 N          59.7687   87.6560    9.7043 N.pl3   1  UNL1       -0.2964
     20 C          59.0230   88.1840    8.5148 C.3     1  UNL1        0.0917
     21 C          59.2909   87.6202    7.1508 C.3     1  UNL1        0.0263
     22 C          60.3046   86.5284    6.9764 C.3     1  UNL1        0.0342
     23 C          61.0504   86.0004    8.1659 C.2     1  UNL1        0.0496
     24 C          60.7824   86.5642    9.5299 C.2     1  UNL1        0.1032
     25 C          61.6658   85.8490   10.5088 C.2     1  UNL1        0.2682
     26 O          61.7249   86.0962   11.9871 O.2     1  UNL1       -0.2681
     27 N          62.4796   84.8432    9.7499 N.am    1  UNL1       -0.2238
     28 C          62.0993   84.9368    8.3019 C.2     1  UNL1        0.2523
     29 O          62.6680   84.1116    7.1858 O.2     1  UNL1       -0.2698
     30 C          63.4955   83.9080   10.3360 C.3     1  UNL1        0.0831
     31 C          64.5402   82.8467   10.1564 C.3     1  UNL1        0.0220
     32 C          64.2102   83.3494   11.5306 C.3     1  UNL1        0.0220
@<TRIPOS>BOND
     1    11    12    1
     2    12    13   ar
     3    13    14   ar
     4    14    15   ar
     5    15     5    1
     6     5     6   ar
     7     6     7   ar
     8     7     8   ar
     9     8     1    1
    10     1     2   am
    11     2     3    2
    12     2    18    1
    13    18    19    1
    14    19    20    1
    15    20    21    1
    16    21    22    1
    17    22    23    1
    18    23    24    2
    19    24    25    1
    20    25    26    2
    21    25    27   am
    22    27    30    1
    23    30    31    1
    24    31    32    1
    25    27    28   am
    26    28    29    2
    27     8     9   ar
    28     9    10   ar
    29    15    16   ar
    30    16    17   ar
    31    17    12   ar
    32    10     5   ar
    33    24    19    1
    34    32    30    1
    35    28    23    1
    36     1     4    1
@<TRIPOS>MOLECULE
*****
 32 36 0 0 0
SMALL
GASTEIGER

@<TRIPOS>ATOM
      1 N          63.2062   87.6897   12.6732 N.am    1  UNL1       -0.2665
      2 C          62.1821   88.6188   12.0918 C.2     1  UNL1        0.2474
      3 O          61.0831   88.0768   11.2266 O.2     1  UNL1       -0.2729
      4 H          63.9275   88.0454   13.2411 H       1  UNL1        0.1564
      5 C          62.9816   83.2767   11.8219 C.ar    1  UNL1        0.1045
      6 C          62.6870   84.2664   10.7339 C.ar    1  UNL1        0.0239
      7 C          62.7618   85.7374   11.0177 C.ar    1  UNL1        0.0379
      8 C          63.1313   86.2187   12.3895 C.ar    1  UNL1        0.1560
      9 N          63.4260   85.2291   13.4775 N.ar    1  UNL1       -0.1328
     10 N          63.3511   83.7580   13.1937 N.ar    1  UNL1       -0.1467
     11 C          62.6822   77.3927   10.6868 C.3     1  UNL1        0.0521
     12 C          62.7571   78.8637   10.9706 C.ar    1  UNL1        0.0594
     13 C          63.0353   79.8292    9.8568 C.ar    1  UNL1        0.0148
     14 C          63.1102   81.3002   10.1405 C.ar    1  UNL1        0.0043
     15 C          62.9068   81.8057   11.5381 C.ar    1  UNL1        0.0385
     16 C          62.6285   80.8402   12.6518 C.ar    1  UNL1        0.1000
     17 N          62.5537   79.3692   12.3680 N.ar    1  UNL1       -0.2481
     18 C          62.2569   90.0898   12.3756 C.3     1  UNL1        0.1775
     19 N          63.2710   90.6154   13.3480 N.pl3   1  UNL1       -0.2964
     20 C          63.1453   90.2967   14.8083 C.3     1  UNL1        0.0917
     21 C          64.1593   90.8223   15.7807 C.3     1  UNL1        0.0263
     22 C          65.2990   91.6666   15.2927 C.3     1  UNL1        0.0342
     23 C          65.4248   91.9853   13.8324 C.2     1  UNL1        0.0496
     24 C          64.4107   91.4597   12.8601 C.2     1  UNL1        0.1032
     25 C          64.7922   91.9359   11.4897 C.2     1  UNL1        0.2682
     26 O          64.0536   91.6435   10.2173 O.2     1  UNL1       -0.2681
     27 N          66.0420   92.7558   11.6152 N.am    1  UNL1       -0.2238
     28 C          66.4329   92.7863   13.0630 C.2     1  UNL1        0.2523
     29 O          67.6231   93.4936   13.6402 O.2     1  UNL1       -0.2698
     30 C          66.7727   93.4273   10.4903 C.3     1  UNL1        0.0831
     31 C          67.7400   93.3595    9.3459 C.3     1  UNL1        0.0220
     32 C          67.0708   94.6580    9.6863 C.3     1  UNL1        0.0220
@<TRIPOS>BOND
     1    11    12    1
     2    12    13   ar
     3    13    14   ar
     4    14    15   ar
     5    15     5    1
     6     5     6   ar
     7     6     7   ar
     8     7     8   ar
     9     8     1    1
    10     1     2   am
    11     2     3    2
    12     2    18    1
    13    18    19    1
    14    19    20    1
    15    20    21    1
    16    21    22    1
    17    22    23    1
    18    23    24    2
    19    24    25    1
    20    25    26    2
    21    25    27   am
    22    27    30    1
    23    30    31    1
    24    31    32    1
    25    27    28   am
    26    28    29    2
    27     8     9   ar
    28     9    10   ar
    29    15    16   ar
    30    16    17   ar
    31    17    12   ar
    32    10     5   ar
    33    24    19    1
    34    32    30    1
    35    28    23    1
    36     1     4    1
@<TRIPOS>MOLECULE
*****
 32 36 0 0 0
SMALL
GASTEIGER

@<TRIPOS>ATOM
      1 N          64.4993   88.6804   15.1068 N.am    1  UNL1       -0.2665
      2 C          63.6123   89.4849   16.0101 C.2     1  UNL1        0.2474
      3 O          62.3717   88.8689   16.5860 O.2     1  UNL1       -0.2729
      4 H          65.3135   89.0846   14.7289 H       1  UNL1        0.1564
      5 C          63.4387   84.4188   14.1246 C.ar    1  UNL1        0.1045
      6 C          63.9550   84.7679   15.4890 C.ar    1  UNL1        0.0239
      7 C          64.3085   86.1884   15.8164 C.ar    1  UNL1        0.0379
      8 C          64.1457   87.2599   14.7794 C.ar    1  UNL1        0.1560
      9 N          63.6294   86.9109   13.4150 N.ar    1  UNL1       -0.1328
     10 N          63.2759   85.4904   13.0876 N.ar    1  UNL1       -0.1467
     11 C          62.0247   78.7368   12.8150 C.3     1  UNL1        0.0521
     12 C          62.3782   80.1573   13.1424 C.ar    1  UNL1        0.0594
     13 C          61.6054   80.8997   14.1921 C.ar    1  UNL1        0.0148
     14 C          61.9589   82.3202   14.5195 C.ar    1  UNL1        0.0043
     15 C          63.0852   82.9983   13.7972 C.ar    1  UNL1        0.0385
     16 C          63.8580   82.2560   12.7476 C.ar    1  UNL1        0.1000
     17 N          63.5044   80.8355   12.4202 N.ar    1  UNL1       -0.2481
     18 C          63.9658   90.9054   16.3375 C.3     1  UNL1        0.1775
     19 N          64.8554   91.6880   15.4176 N.pl3   1  UNL1       -0.2964
     20 C          65.9798   92.5070   15.9788 C.3     1  UNL1        0.0917
     21 C          66.8694   93.2895   15.0589 C.3     1  UNL1        0.0263
     22 C          66.6346   93.2530   13.5779 C.3     1  UNL1        0.0342
     23 C          65.5103   92.4340   13.0167 C.2     1  UNL1        0.0496
     24 C          64.6207   91.6515   13.9366 C.2     1  UNL1        0.1032
     25 C          63.5994   90.9399   13.0994 C.2     1  UNL1        0.2682
     26 O          62.5108   90.0430   13.6100 O.2     1  UNL1       -0.2681
     27 N          63.8578   91.2827   11.6622 N.am    1  UNL1       -0.2238
     28 C          65.0388   92.2061   11.6111 C.2     1  UNL1        0.2523
     29 O          65.6424   92.7977   10.3719 O.2     1  UNL1       -0.2698
     30 C          63.0731   90.7887   10.4831 C.3     1  UNL1        0.0831
     31 C          62.3968   89.6685    9.7499 C.3     1  UNL1        0.0220
     32 C          62.3903   91.0535    9.1740 C.3     1  UNL1        0.0220
@<TRIPOS>BOND
     1    11    12    1
     2    12    13   ar
     3    13    14   ar
     4    14    15   ar
     5    15     5    1
     6     5     6   ar
     7     6     7   ar
     8     7     8   ar
     9     8     1    1
    10     1     2   am
    11     2     3    2
    12     2    18    1
    13    18    19    1
    14    19    20    1
    15    20    21    1
    16    21    22    1
    17    22    23    1
    18    23    24    2
    19    24    25    1
    20    25    26    2
    21    25    27   am
    22    27    30    1
    23    30    31    1
    24    31    32    1
    25    27    28   am
    26    28    29    2
    27     8     9   ar
    28     9    10   ar
    29    15    16   ar
    30    16    17   ar
    31    17    12   ar
    32    10     5   ar
    33    24    19    1
    34    32    30    1
    35    28    23    1
    36     1     4    1
@<TRIPOS>MOLECULE
*****
 32 36 0 0 0
SMALL
GASTEIGER

@<TRIPOS>ATOM
      1 N          71.1846   75.0980   15.3464 N.am    1  UNL1       -0.2665
      2 C          72.2515   74.1091   15.7120 C.2     1  UNL1        0.2474
      3 O          73.5979   74.1810   15.0545 O.2     1  UNL1       -0.2729
      4 H          70.3009   75.0508   15.7779 H       1  UNL1        0.1564
      5 C          72.0226   78.2805   12.2773 C.ar    1  UNL1        0.1045
      6 C          72.4344   78.4880   13.7046 C.ar    1  UNL1        0.0239
      7 C          72.1551   77.4271   14.7276 C.ar    1  UNL1        0.0379
      8 C          71.4639   76.1588   14.3233 C.ar    1  UNL1        0.1560
      9 N          71.0520   75.9512   12.8960 N.ar    1  UNL1       -0.1328
     10 N          71.3313   77.0121   11.8729 N.ar    1  UNL1       -0.1467
     11 C          73.1399   82.5238    8.1851 C.3     1  UNL1        0.0521
     12 C          72.8606   81.4630    9.2081 C.ar    1  UNL1        0.0594
     13 C          73.0519   80.0164    8.8601 C.ar    1  UNL1        0.0148
     14 C          72.7726   78.9556    9.8831 C.ar    1  UNL1        0.0043
     15 C          72.3019   79.3413   11.2542 C.ar    1  UNL1        0.0385
     16 C          72.1106   80.7877   11.6022 C.ar    1  UNL1        0.1000
     17 N          72.3899   81.8486   10.5792 N.ar    1  UNL1       -0.2481
     18 C          71.9722   73.0483   16.7350 C.3     1  UNL1        0.1775
     19 N          72.2756   71.6117   16.4279 N.pl3   1  UNL1       -0.2964
     20 C          73.3130   70.8774   17.2244 C.3     1  UNL1        0.0917
     21 C          73.6164   69.4409   16.9173 C.3     1  UNL1        0.0263
     22 C          72.8824   68.7387   15.8136 C.3     1  UNL1        0.0342
     23 C          71.8450   69.4730   15.0170 C.2     1  UNL1        0.0496
     24 C          71.5416   70.9095   15.3242 C.2     1  UNL1        0.1032
     25 C          70.4751   71.3712   14.3756 C.2     1  UNL1        0.2682
     26 O          69.8706   72.7431   14.3287 O.2     1  UNL1       -0.2681
     27 N          70.1194   70.2199   13.4823 N.am    1  UNL1       -0.2238
     28 C          70.9661   69.0468   13.8787 C.2     1  UNL1        0.2523
     29 O          70.9386   67.6863   13.2476 O.2     1  UNL1       -0.2698
     30 C          69.0967   70.2385   12.3851 C.3     1  UNL1        0.0831
     31 C          67.8269   69.7130   11.7839 C.3     1  UNL1        0.0220
     32 C          68.5951   70.7960   11.0861 C.3     1  UNL1        0.0220
@<TRIPOS>BOND
     1    11    12    1
     2    12    13   ar
     3    13    14   ar
     4    14    15   ar
     5    15     5    1
     6     5     6   ar
     7     6     7   ar
     8     7     8   ar
     9     8     1    1
    10     1     2   am
    11     2     3    2
    12     2    18    1
    13    18    19    1
    14    19    20    1
    15    20    21    1
    16    21    22    1
    17    22    23    1
    18    23    24    2
    19    24    25    1
    20    25    26    2
    21    25    27   am
    22    27    30    1
    23    30    31    1
    24    31    32    1
    25    27    28   am
    26    28    29    2
    27     8     9   ar
    28     9    10   ar
    29    15    16   ar
    30    16    17   ar
    31    17    12   ar
    32    10     5   ar
    33    24    19    1
    34    32    30    1
    35    28    23    1
    36     1     4    1
@<TRIPOS>MOLECULE
*****
 32 36 0 0 0
SMALL
GASTEIGER

@<TRIPOS>ATOM
      1 N          60.5869   90.0540    6.1417 N.am    1  UNL1       -0.2665
      2 C          59.3421   89.4241    6.6926 C.2     1  UNL1        0.2474
      3 O          58.0052   89.7653    6.1040 O.2     1  UNL1       -0.2729
      4 H          61.4643   89.8301    6.5280 H       1  UNL1        0.1564
      5 C          60.3110   92.9674    2.7232 C.ar    1  UNL1        0.1045
      6 C          61.5788   92.1997    2.9539 C.ar    1  UNL1        0.0239
      7 C          61.6708   91.2286    4.0934 C.ar    1  UNL1        0.0379
      8 C          60.4949   91.0251    5.0022 C.ar    1  UNL1        0.1560
      9 N          59.2270   91.7928    4.7715 N.ar    1  UNL1       -0.1328
     10 N          59.1351   92.7640    3.6320 N.ar    1  UNL1       -0.1467
     11 C          59.9431   96.8519   -1.8348 C.3     1  UNL1        0.0521
     12 C          60.0351   95.8808   -0.6953 C.ar    1  UNL1        0.0594
     13 C          59.0893   94.7187   -0.6220 C.ar    1  UNL1        0.0148
     14 C          59.1813   93.7476    0.5175 C.ar    1  UNL1        0.0043
     15 C          60.2190   93.9385    1.5837 C.ar    1  UNL1        0.0385
     16 C          61.1647   95.1005    1.5104 C.ar    1  UNL1        0.1000
     17 N          61.0727   96.0717    0.3709 N.ar    1  UNL1       -0.2481
     18 C          59.4340   88.4530    7.8321 C.3     1  UNL1        0.1775
     19 N          60.1220   88.8520    9.1039 N.pl3   1  UNL1       -0.2964
     20 C          59.9126   90.2247    9.6711 C.3     1  UNL1        0.0917
     21 C          60.6006   90.6237   10.9429 C.3     1  UNL1        0.0263
     22 C          61.4980   89.6500   11.6475 C.3     1  UNL1        0.0342
     23 C          61.7075   88.2773   11.0803 C.2     1  UNL1        0.0496
     24 C          61.0195   87.8783    9.8085 C.2     1  UNL1        0.1032
     25 C          61.4147   86.4665    9.4909 C.2     1  UNL1        0.2682
     26 O          60.9578   85.6684    8.3058 O.2     1  UNL1       -0.2681
     27 N          62.3469   85.9930   10.5664 N.am    1  UNL1       -0.2238
     28 C          62.5278   87.1121   11.5487 C.2     1  UNL1        0.2523
     29 O          63.3796   87.0730   12.7827 O.2     1  UNL1       -0.2698
     30 C          62.9860   84.6383   10.6457 C.3     1  UNL1        0.0831
     31 C          63.2666   83.3769   11.4075 C.3     1  UNL1        0.0220
     32 C          63.8123   83.5531   10.0215 C.3     1  UNL1        0.0220
@<TRIPOS>BOND
     1    11    12    1
     2    12    13   ar
     3    13    14   ar
     4    14    15   ar
     5    15     5    1
     6     5     6   ar
     7     6     7   ar
     8     7     8   ar
     9     8     1    1
    10     1     2   am
    11     2     3    2
    12     2    18    1
    13    18    19    1
    14    19    20    1
    15    20    21    1
    16    21    22    1
    17    22    23    1
    18    23    24    2
    19    24    25    1
    20    25    26    2
    21    25    27   am
    22    27    30    1
    23    30    31    1
    24    31    32    1
    25    27    28   am
    26    28    29    2
    27     8     9   ar
    28     9    10   ar
    29    15    16   ar
    30    16    17   ar
    31    17    12   ar
    32    10     5   ar
    33    24    19    1
    34    32    30    1
    35    28    23    1
    36     1     4    1
@<TRIPOS>MOLECULE
*****
 32 36 0 0 0
SMALL
GASTEIGER

@<TRIPOS>ATOM
      1 N          62.4893   87.5449   12.1233 N.am    1  UNL1       -0.2665
      2 C          63.1520   88.1641   13.3181 C.2     1  UNL1        0.2474
      3 O          63.8827   87.2997   14.3024 O.2     1  UNL1       -0.2729
      4 H          62.0097   88.1122   11.4773 H       1  UNL1        0.1564
      5 C          62.6936   83.0941   11.4920 C.ar    1  UNL1        0.1045
      6 C          62.7533   84.0220   10.3151 C.ar    1  UNL1        0.0239
      7 C          62.6852   85.5057   10.5255 C.ar    1  UNL1        0.0379
      8 C          62.5574   86.0613   11.9129 C.ar    1  UNL1        0.1560
      9 N          62.4977   85.1333   13.0899 N.ar    1  UNL1       -0.1328
     10 N          62.5658   83.6497   12.8795 N.ar    1  UNL1       -0.1467
     11 C          62.9660   77.1597   10.6502 C.3     1  UNL1        0.0521
     12 C          62.8979   78.6433   10.8607 C.ar    1  UNL1        0.0594
     13 C          63.0591   79.5742    9.6956 C.ar    1  UNL1        0.0148
     14 C          62.9910   81.0578    9.9060 C.ar    1  UNL1        0.0043
     15 C          62.7617   81.6105   11.2816 C.ar    1  UNL1        0.0385
     16 C          62.6005   80.6795   12.4466 C.ar    1  UNL1        0.1000
     17 N          62.6686   79.1959   12.2361 N.ar    1  UNL1       -0.2481
     18 C          63.0839   89.6477   13.5285 C.3     1  UNL1        0.1775
     19 N          63.6004   90.5795   12.4725 N.pl3   1  UNL1       -0.2964
     20 C          62.9282   90.6415   11.1330 C.3     1  UNL1        0.0917
     21 C          63.4448   91.5732   10.0771 C.3     1  UNL1        0.0263
     22 C          64.6335   92.4430   10.3607 C.3     1  UNL1        0.0342
     23 C          65.3057   92.3811   11.7002 C.2     1  UNL1        0.0496
     24 C          64.7891   91.4493   12.7561 C.2     1  UNL1        0.1032
     25 C          65.6513   91.6049   13.9738 C.2     1  UNL1        0.2682
     26 O          65.4920   90.8629   15.2676 O.2     1  UNL1       -0.2681
     27 N          66.7007   92.6329   13.6703 N.am    1  UNL1       -0.2238
     28 C          66.4871   93.1125   12.2652 C.2     1  UNL1        0.2523
     29 O          67.3103   94.1428   11.5505 O.2     1  UNL1       -0.2698
     30 C          67.7751   93.0993   14.6074 C.3     1  UNL1        0.0831
     31 C          68.2479   94.0383   15.6773 C.3     1  UNL1        0.0220
     32 C          69.1631   92.9681   15.1607 C.3     1  UNL1        0.0220
@<TRIPOS>BOND
     1    11    12    1
     2    12    13   ar
     3    13    14   ar
     4    14    15   ar
     5    15     5    1
     6     5     6   ar
     7     6     7   ar
     8     7     8   ar
     9     8     1    1
    10     1     2   am
    11     2     3    2
    12     2    18    1
    13    18    19    1
    14    19    20    1
    15    20    21    1
    16    21    22    1
    17    22    23    1
    18    23    24    2
    19    24    25    1
    20    25    26    2
    21    25    27   am
    22    27    30    1
    23    30    31    1
    24    31    32    1
    25    27    28   am
    26    28    29    2
    27     8     9   ar
    28     9    10   ar
    29    15    16   ar
    30    16    17   ar
    31    17    12   ar
    32    10     5   ar
    33    24    19    1
    34    32    30    1
    35    28    23    1
    36     1     4    1
@<TRIPOS>MOLECULE
*****
 32 36 0 0 0
SMALL
GASTEIGER

@<TRIPOS>ATOM
      1 N          60.7992   90.8125    5.8062 N.am    1  UNL1       -0.2665
      2 C          59.4258   90.3286    6.1664 C.2     1  UNL1        0.2474
      3 O          58.3063   90.4429    5.1745 O.2     1  UNL1       -0.2729
      4 H          61.5339   90.7375    6.4571 H       1  UNL1        0.1564
      5 C          61.5609   92.6067    1.7503 C.ar    1  UNL1        0.1045
      6 C          62.5813   91.7009    2.3733 C.ar    1  UNL1        0.0239
      7 C          62.3274   91.1028    3.7253 C.ar    1  UNL1        0.0379
      8 C          61.0531   91.4106    4.4542 C.ar    1  UNL1        0.1560
      9 N          60.0326   92.3164    3.8312 N.ar    1  UNL1       -0.1328
     10 N          60.2865   92.9145    2.4792 N.ar    1  UNL1       -0.1467
     11 C          62.5764   94.9991   -3.6576 C.3     1  UNL1        0.0521
     12 C          62.3225   94.4010   -2.3056 C.ar    1  UNL1        0.0594
     13 C          61.1521   93.4860   -2.0981 C.ar    1  UNL1        0.0148
     14 C          60.8982   92.8879   -0.7461 C.ar    1  UNL1        0.0043
     15 C          61.8148   93.2048    0.3983 C.ar    1  UNL1        0.0385
     16 C          62.9851   94.1198    0.1907 C.ar    1  UNL1        0.1000
     17 N          63.2390   94.7179   -1.1612 N.ar    1  UNL1       -0.2481
     18 C          59.1719   89.7306    7.5183 C.3     1  UNL1        0.1775
     19 N          59.7454   88.3883    7.8644 N.pl3   1  UNL1       -0.2964
     20 C          59.3822   87.1843    7.0469 C.3     1  UNL1        0.0917
     21 C          59.9557   85.8421    7.3929 C.3     1  UNL1        0.0263
     22 C          60.8923   85.7041    8.5564 C.3     1  UNL1        0.0342
     23 C          61.2554   86.9081    9.3739 C.2     1  UNL1        0.0496
     24 C          60.6819   88.2503    9.0279 C.2     1  UNL1        0.1032
     25 C          61.2184   89.2504   10.0087 C.2     1  UNL1        0.2682
     26 O          60.9049   90.7171   10.0330 O.2     1  UNL1       -0.2681
     27 N          62.1234   88.5264   10.9609 N.am    1  UNL1       -0.2238
     28 C          62.1462   87.0788   10.5686 C.2     1  UNL1        0.2523
     29 O          62.9235   85.9925   11.2511 O.2     1  UNL1       -0.2698
     30 C          62.8738   89.1419   12.1047 C.3     1  UNL1        0.0831
     31 C          63.3248   90.3580   12.8580 C.3     1  UNL1        0.0220
     32 C          63.7225   88.9917   13.3323 C.3     1  UNL1        0.0220
@<TRIPOS>BOND
     1    11    12    1
     2    12    13   ar
     3    13    14   ar
     4    14    15   ar
     5    15     5    1
     6     5     6   ar
     7     6     7   ar
     8     7     8   ar
     9     8     1    1
    10     1     2   am
    11     2     3    2
    12     2    18    1
    13    18    19    1
    14    19    20    1
    15    20    21    1
    16    21    22    1
    17    22    23    1
    18    23    24    2
    19    24    25    1
    20    25    26    2
    21    25    27   am
    22    27    30    1
    23    30    31    1
    24    31    32    1
    25    27    28   am
    26    28    29    2
    27     8     9   ar
    28     9    10   ar
    29    15    16   ar
    30    16    17   ar
    31    17    12   ar
    32    10     5   ar
    33    24    19    1
    34    32    30    1
    35    28    23    1
    36     1     4    1
@<TRIPOS>MOLECULE
*****
 32 36 0 0 0
SMALL
GASTEIGER

@<TRIPOS>ATOM
      1 N          43.9859   80.5998   15.6137 N.am    1  UNL1       -0.2665
      2 C          43.8341   79.1695   16.0393 C.2     1  UNL1        0.2474
      3 O          43.6339   78.0977   15.0091 O.2     1  UNL1       -0.2729
      4 H          44.1173   81.3032   16.2898 H       1  UNL1        0.1564
      5 C          43.8408   81.6755   11.2466 C.ar    1  UNL1        0.1045
      6 C          43.6337   82.7356   12.2874 C.ar    1  UNL1        0.0239
      7 C          43.6821   82.3770   13.7431 C.ar    1  UNL1        0.0379
      8 C          43.9376   80.9584   14.1580 C.ar    1  UNL1        0.1560
      9 N          44.1447   79.8982   13.1172 N.ar    1  UNL1       -0.1328
     10 N          44.0963   80.2568   11.6615 N.ar    1  UNL1       -0.1467
     11 C          43.6473   83.1098    5.4238 C.3     1  UNL1        0.0521
     12 C          43.6956   82.7513    6.8795 C.ar    1  UNL1        0.0594
     13 C          43.6431   83.8306    7.9199 C.ar    1  UNL1        0.0148
     14 C          43.6915   83.4720    9.3756 C.ar    1  UNL1        0.0043
     15 C          43.7924   82.0341    9.7909 C.ar    1  UNL1        0.0385
     16 C          43.8449   80.9549    8.7505 C.ar    1  UNL1        0.1000
     17 N          43.7965   81.3135    7.2948 N.ar    1  UNL1       -0.2481
     18 C          43.8825   78.8109   17.4950 C.3     1  UNL1        0.1775
     19 N          45.2038   78.5858   18.1684 N.pl3   1  UNL1       -0.2964
     20 C          46.0061   79.7557   18.6560 C.3     1  UNL1        0.0917
     21 C          47.3273   79.5305   19.3294 C.3     1  UNL1        0.0263
     22 C          47.8464   78.1355   19.5153 C.3     1  UNL1        0.0342
     23 C          47.0441   76.9657   19.0277 C.2     1  UNL1        0.0496
     24 C          45.7229   77.1908   18.3543 C.2     1  UNL1        0.1032
     25 C          45.1589   75.8520   17.9805 C.2     1  UNL1        0.2682
     26 O          43.8518   75.6085   17.2862 O.2     1  UNL1       -0.2681
     27 N          46.1318   74.7994   18.4229 N.am    1  UNL1       -0.2238
     28 C          47.2968   75.4877   19.0701 C.2     1  UNL1        0.2523
     29 O          48.5029   74.8160   19.6568 O.2     1  UNL1       -0.2698
     30 C          45.9682   73.3185   18.2488 C.3     1  UNL1        0.0831
     31 C          45.1712   72.1492   17.7514 C.3     1  UNL1        0.0220
     32 C          46.4820   71.9229   18.4445 C.3     1  UNL1        0.0220
@<TRIPOS>BOND
     1    11    12    1
     2    12    13   ar
     3    13    14   ar
     4    14    15   ar
     5    15     5    1
     6     5     6   ar
     7     6     7   ar
     8     7     8   ar
     9     8     1    1
    10     1     2   am
    11     2     3    2
    12     2    18    1
    13    18    19    1
    14    19    20    1
    15    20    21    1
    16    21    22    1
    17    22    23    1
    18    23    24    2
    19    24    25    1
    20    25    26    2
    21    25    27   am
    22    27    30    1
    23    30    31    1
    24    31    32    1
    25    27    28   am
    26    28    29    2
    27     8     9   ar
    28     9    10   ar
    29    15    16   ar
    30    16    17   ar
    31    17    12   ar
    32    10     5   ar
    33    24    19    1
    34    32    30    1
    35    28    23    1
    36     1     4    1
