@<TRIPOS>MOLECULE
*****
 39 44 0 0 0
SMALL
GASTEIGER

@<TRIPOS>ATOM
      1 N          62.4481   89.7766   12.6495 N.am    1  UNL1       -0.2770
      2 C          63.1858   88.4887   12.4324 C.2     1  UNL1        0.2294
      3 O          64.4671   88.2254   13.1664 O.2     1  UNL1       -0.2747
      4 C          62.6420   87.4640   11.4813 C.3     1  UNL1        0.1211
      5 C          61.9868   87.8993   10.2042 C.3     1  UNL1        0.0804
      6 N          61.4430   86.8746    9.2531 N.3     1  UNL1       -0.2969
      7 C          61.5546   85.4148    9.5793 C.3     1  UNL1        0.0714
      8 C          62.2099   84.9795   10.8564 C.3     1  UNL1        0.0490
      9 C          62.7536   86.0042   11.8074 C.3     1  UNL1        0.1224
     10 O          63.3406   86.9088   12.8501 O.3     1  UNL1       -0.3492
     11 C          63.8868   86.0516   13.9533 C.3     1  UNL1        0.1687
     12 C          63.6372   84.6172   13.5925 C.ar    1  UNL1        0.0079
     13 C          63.9572   83.3340   14.3001 C.ar    1  UNL1        0.0299
     14 C          63.5769   82.0213   13.6817 C.ar    1  UNL1        0.1671
     15 F          63.8969   80.7381   14.3894 F       1  UNL1       -0.2018
     16 C          62.8766   81.9920   12.3556 C.ar    1  UNL1        0.1671
     17 F          62.4963   80.6794   11.7371 F       1  UNL1       -0.2018
     18 C          62.5566   83.2753   11.6478 C.ar    1  UNL1        0.0297
     19 C          62.9369   84.5878   12.2663 C.ar    1  UNL1        0.0033
     20 H          61.9220   87.0151    8.3636 H       1  UNL1        0.1233
     21 C          61.1667   90.0398   11.9155 C.3     1  UNL1        0.0758
     22 C          60.4409   90.6028   10.7296 C.3     1  UNL1        0.0215
     23 C          59.6730   89.9328   11.8301 C.3     1  UNL1        0.0215
     24 C          62.9918   90.8012   13.6005 C.3     1  UNL1        0.1200
     25 C          65.6023   92.8201   11.3962 C.ar    1  UNL1       -0.0224
     26 C          64.4073   91.9992   11.7809 C.ar    1  UNL1       -0.0069
     27 C          64.1868   91.6221   13.2159 C.ar    1  UNL1       -0.0026
     28 C          65.1614   92.0659   14.2662 C.ar    1  UNL1       -0.0024
     29 C          64.9410   91.6889   15.7012 C.ar    1  UNL1       -0.0003
     30 C          65.9156   92.1327   16.7515 C.ar    1  UNL1       -0.0000
     31 C          67.1106   92.9536   16.3668 C.ar    1  UNL1       -0.0000
     32 C          67.3311   93.3307   14.9318 C.ar    1  UNL1       -0.0000
     33 C          66.3565   92.8869   13.8815 C.ar    1  UNL1       -0.0006
     34 C          66.5769   93.2639   12.4465 C.ar    1  UNL1       -0.0043
     35 C          65.8227   93.1972    9.9611 C.3     1  UNL1        0.0289
     36 C          66.3814   94.5462    9.6175 C.3     1  UNL1        0.0367
     37 C          67.7971   94.6717    9.1381 C.3     1  UNL1        0.1426
     38 C          68.9530   92.3456    9.0819 C.3     1  UNL1        0.1741
     39 O          68.8479   93.7306    9.6482 O.3     1  UNL1       -0.3511
@<TRIPOS>BOND
     1    38    39    1
     2    39    37    1
     3    37    36    1
     4    36    35    1
     5    35    25    1
     6    25    26   ar
     7    26    27   ar
     8    27    24    1
     9    24     1    1
    10     1     2   am
    11     2     3    2
    12     4     2    1
    13     4     5    1
    14     5     6    1
    15     6     7    1
    16     7     8    1
    17     9     8    1
    18     9    10    1
    19    10    11    1
    20    11    12    1
    21    12    13   ar
    22    13    14   ar
    23    14    15    1
    24    14    16   ar
    25    16    17    1
    26    16    18   ar
    27    18    19   ar
    28     1    21    1
    29    21    22    1
    30    22    23    1
    31    27    28   ar
    32    28    29   ar
    33    29    30   ar
    34    30    31   ar
    35    31    32   ar
    36    32    33   ar
    37    33    34   ar
    38    34    25   ar
    39     9     4    1
    40    19    12   ar
    41    23    21    1
    42    33    28   ar
    43    19     9    1
    44     6    20    1
@<TRIPOS>MOLECULE
*****
 39 44 0 0 0
SMALL
GASTEIGER

@<TRIPOS>ATOM
      1 N          61.8050   88.5582   11.3265 N.am    1  UNL1       -0.2770
      2 C          62.7759   87.4390   11.5603 C.2     1  UNL1        0.2294
      3 O          63.6961   87.4793   12.7442 O.2     1  UNL1       -0.2747
      4 C          62.8266   86.2793   10.6102 C.3     1  UNL1        0.1211
      5 C          62.9048   86.5235    9.1323 C.3     1  UNL1        0.0804
      6 N          62.9554   85.3639    8.1822 N.3     1  UNL1       -0.2969
      7 C          62.9280   83.9601    8.7100 C.3     1  UNL1        0.0714
      8 C          62.8498   83.7159   10.1879 C.3     1  UNL1        0.0490
      9 C          62.7992   84.8755   11.1380 C.3     1  UNL1        0.1224
     10 O          62.7424   85.9294   12.2040 O.3     1  UNL1       -0.3492
     11 C          62.6722   85.2398   13.5343 C.3     1  UNL1        0.1687
     12 C          62.6856   83.7598   13.2905 C.ar    1  UNL1        0.0079
     13 C          62.6365   82.5881   14.2256 C.ar    1  UNL1        0.0299
     14 C          62.6659   81.1911   13.6799 C.ar    1  UNL1        0.1671
     15 F          62.6168   80.0194   14.6150 F       1  UNL1       -0.2018
     16 C          62.7443   80.9660   12.1990 C.ar    1  UNL1        0.1671
     17 F          62.7737   79.5691   11.6532 F       1  UNL1       -0.2018
     18 C          62.7934   82.1378   11.2637 C.ar    1  UNL1        0.0297
     19 C          62.7641   83.5346   11.8095 C.ar    1  UNL1        0.0033
     20 H          63.8178   85.4600    7.6460 H       1  UNL1        0.1233
     21 C          60.8848   88.5178   10.1426 C.3     1  UNL1        0.0758
     22 C          59.8252   87.8180    9.3441 C.3     1  UNL1        0.0215
     23 C          60.3507   89.1477    8.8904 C.3     1  UNL1        0.0215
     24 C          61.7543   89.7178   12.2766 C.3     1  UNL1        0.1200
     25 C          64.8261   92.1001   11.4775 C.ar    1  UNL1       -0.0224
     26 C          63.6163   91.2345   11.2853 C.ar    1  UNL1       -0.0069
     27 C          62.9642   90.5834   12.4688 C.ar    1  UNL1       -0.0026
     28 C          63.5220   90.7979   13.8447 C.ar    1  UNL1       -0.0024
     29 C          62.8700   90.1468   15.0283 C.ar    1  UNL1       -0.0003
     30 C          63.4278   90.3612   16.4040 C.ar    1  UNL1       -0.0000
     31 C          64.6377   91.2268   16.5962 C.ar    1  UNL1       -0.0000
     32 C          65.2897   91.8779   15.4127 C.ar    1  UNL1       -0.0000
     33 C          64.7319   91.6635   14.0369 C.ar    1  UNL1       -0.0006
     34 C          65.3840   92.3146   12.8533 C.ar    1  UNL1       -0.0043
     35 C          65.4782   92.7512   10.2939 C.3     1  UNL1        0.0289
     36 C          66.1387   94.0896   10.4435 C.3     1  UNL1        0.0367
     37 C          67.2663   94.4756    9.5328 C.3     1  UNL1        0.1426
     38 C          68.9082   92.4905    9.1955 C.3     1  UNL1        0.1741
     39 O          68.6242   93.8666    9.7206 O.3     1  UNL1       -0.3511
@<TRIPOS>BOND
     1    38    39    1
     2    39    37    1
     3    37    36    1
     4    36    35    1
     5    35    25    1
     6    25    26   ar
     7    26    27   ar
     8    27    24    1
     9    24     1    1
    10     1     2   am
    11     2     3    2
    12     4     2    1
    13     4     5    1
    14     5     6    1
    15     6     7    1
    16     7     8    1
    17     9     8    1
    18     9    10    1
    19    10    11    1
    20    11    12    1
    21    12    13   ar
    22    13    14   ar
    23    14    15    1
    24    14    16   ar
    25    16    17    1
    26    16    18   ar
    27    18    19   ar
    28     1    21    1
    29    21    22    1
    30    22    23    1
    31    27    28   ar
    32    28    29   ar
    33    29    30   ar
    34    30    31   ar
    35    31    32   ar
    36    32    33   ar
    37    33    34   ar
    38    34    25   ar
    39     9     4    1
    40    19    12   ar
    41    23    21    1
    42    33    28   ar
    43    19     9    1
    44     6    20    1
@<TRIPOS>MOLECULE
*****
 39 44 0 0 0
SMALL
GASTEIGER

@<TRIPOS>ATOM
      1 N          61.4546   88.5431   10.8872 N.am    1  UNL1       -0.2770
      2 C          62.5170   87.5285   11.1902 C.2     1  UNL1        0.2294
      3 O          63.4155   87.7147   12.3767 O.2     1  UNL1       -0.2747
      4 C          62.6809   86.3275   10.3065 C.3     1  UNL1        0.1211
      5 C          62.8328   86.5019    8.8244 C.3     1  UNL1        0.0804
      6 N          62.9967   85.3010    7.9408 N.3     1  UNL1       -0.2969
      7 C          63.0086   83.9256    8.5392 C.3     1  UNL1        0.0714
      8 C          62.8567   83.7511   10.0212 C.3     1  UNL1        0.0490
      9 C          62.6928   84.9521   10.9049 C.3     1  UNL1        0.1224
     10 O          62.5214   86.0529   11.9093 O.3     1  UNL1       -0.3492
     11 C          62.4083   85.4274   13.2679 C.3     1  UNL1        0.1687
     12 C          62.5098   83.9398   13.1032 C.ar    1  UNL1        0.0079
     13 C          62.4648   82.8150   14.0944 C.ar    1  UNL1        0.0299
     14 C          62.5957   81.3962   13.6252 C.ar    1  UNL1        0.1671
     15 F          62.5507   80.2713   14.6163 F       1  UNL1       -0.2018
     16 C          62.7716   81.1025   12.1648 C.ar    1  UNL1        0.1671
     17 F          62.9024   79.6838   11.6955 F       1  UNL1       -0.2018
     18 C          62.8165   82.2274   11.1735 C.ar    1  UNL1        0.0297
     19 C          62.6857   83.6461   11.6428 C.ar    1  UNL1        0.0033
     20 H          63.8829   85.4159    7.4492 H       1  UNL1        0.1233
     21 C          60.5561   88.3568    9.7006 C.3     1  UNL1        0.0758
     22 C          60.0093   88.8523    8.3947 C.3     1  UNL1        0.0215
     23 C          59.5467   87.5385    8.9513 C.3     1  UNL1        0.0215
     24 C          61.2907   89.7440   11.7709 C.3     1  UNL1        0.1200
     25 C          63.3873   89.9878   15.1316 C.ar    1  UNL1       -0.0224
     26 C          62.3066   89.6194   14.1588 C.ar    1  UNL1       -0.0069
     27 C          62.3714   90.1125   12.7437 C.ar    1  UNL1       -0.0026
     28 C          63.5168   90.9742   12.3014 C.ar    1  UNL1       -0.0024
     29 C          63.5815   91.4673   10.8863 C.ar    1  UNL1       -0.0003
     30 C          64.7269   92.3290   10.4440 C.ar    1  UNL1       -0.0000
     31 C          65.8076   92.6974   11.4168 C.ar    1  UNL1       -0.0000
     32 C          65.7428   92.2043   12.8319 C.ar    1  UNL1       -0.0000
     33 C          64.5975   91.3427   13.2742 C.ar    1  UNL1       -0.0006
     34 C          64.5327   90.8494   14.6894 C.ar    1  UNL1       -0.0043
     35 C          63.3225   89.4946   16.5468 C.3     1  UNL1        0.0289
     36 C          63.3966   88.0240   16.8326 C.3     1  UNL1        0.0367
     37 C          62.6461   87.4473   17.9963 C.3     1  UNL1        0.1426
     38 C          62.3981   85.1760   16.7595 C.3     1  UNL1        0.1741
     39 O          62.0137   86.0919   17.8835 O.3     1  UNL1       -0.3511
@<TRIPOS>BOND
     1    38    39    1
     2    39    37    1
     3    37    36    1
     4    36    35    1
     5    35    25    1
     6    25    26   ar
     7    26    27   ar
     8    27    24    1
     9    24     1    1
    10     1     2   am
    11     2     3    2
    12     4     2    1
    13     4     5    1
    14     5     6    1
    15     6     7    1
    16     7     8    1
    17     9     8    1
    18     9    10    1
    19    10    11    1
    20    11    12    1
    21    12    13   ar
    22    13    14   ar
    23    14    15    1
    24    14    16   ar
    25    16    17    1
    26    16    18   ar
    27    18    19   ar
    28     1    21    1
    29    21    22    1
    30    22    23    1
    31    27    28   ar
    32    28    29   ar
    33    29    30   ar
    34    30    31   ar
    35    31    32   ar
    36    32    33   ar
    37    33    34   ar
    38    34    25   ar
    39     9     4    1
    40    19    12   ar
    41    23    21    1
    42    33    28   ar
    43    19     9    1
    44     6    20    1
@<TRIPOS>MOLECULE
*****
 39 44 0 0 0
SMALL
GASTEIGER

@<TRIPOS>ATOM
      1 N          61.6261   90.2239   11.3045 N.am    1  UNL1       -0.2770
      2 C          62.3957   89.3665   10.3440 C.2     1  UNL1        0.2294
      3 O          63.7770   89.7691    9.9200 O.2     1  UNL1       -0.2747
      4 C          61.7839   88.1063    9.8075 C.3     1  UNL1        0.1211
      5 C          60.9266   88.1534    8.5775 C.3     1  UNL1        0.0804
      6 N          60.3149   86.8933    8.0411 N.3     1  UNL1       -0.2969
      7 C          60.5603   85.5861    8.7346 C.3     1  UNL1        0.0714
      8 C          61.4176   85.5390    9.9646 C.3     1  UNL1        0.0490
      9 C          62.0293   86.7991   10.5010 C.3     1  UNL1        0.1224
     10 O          62.7043   87.9706   11.1507 O.3     1  UNL1       -0.3492
     11 C          63.4543   87.4678   12.3485 C.3     1  UNL1        0.1687
     12 C          63.2428   85.9855   12.4392 C.ar    1  UNL1        0.0079
     13 C          63.7383   84.9588   13.4139 C.ar    1  UNL1        0.0299
     14 C          63.3532   83.5187   13.2469 C.ar    1  UNL1        0.1671
     15 F          63.8487   82.4919   14.2216 F       1  UNL1       -0.2018
     16 C          62.4726   83.1054   12.1051 C.ar    1  UNL1        0.1671
     17 F          62.0875   81.6654   11.9381 F       1  UNL1       -0.2018
     18 C          61.9770   84.1322   11.1303 C.ar    1  UNL1        0.0297
     19 C          62.3621   85.5723   11.2974 C.ar    1  UNL1        0.0033
     20 H          60.6516   86.7867    7.0841 H       1  UNL1        0.1233
     21 C          60.2447   89.8211   11.7286 C.3     1  UNL1        0.0758
     22 C          58.7946   90.1551   11.9171 C.3     1  UNL1        0.0215
     23 C          59.3024   88.7896   12.2744 C.3     1  UNL1        0.0215
     24 C          62.2378   91.4840   11.8411 C.3     1  UNL1        0.1200
     25 C          64.1229   90.8416   15.2738 C.ar    1  UNL1       -0.0224
     26 C          63.0298   90.9156   14.2493 C.ar    1  UNL1       -0.0069
     27 C          63.3310   91.4099   12.8655 C.ar    1  UNL1       -0.0026
     28 C          64.7254   91.8300   12.5061 C.ar    1  UNL1       -0.0024
     29 C          65.0266   92.3243   11.1223 C.ar    1  UNL1       -0.0003
     30 C          66.4210   92.7444   10.7630 C.ar    1  UNL1       -0.0000
     31 C          67.5142   92.6703   11.7875 C.ar    1  UNL1       -0.0000
     32 C          67.2129   92.1761   13.1713 C.ar    1  UNL1       -0.0000
     33 C          65.8186   91.7560   13.5306 C.ar    1  UNL1       -0.0006
     34 C          65.5173   91.2617   14.9145 C.ar    1  UNL1       -0.0043
     35 C          63.8216   90.3473   16.6577 C.3     1  UNL1        0.0289
     36 C          63.1301   89.0301   16.8496 C.3     1  UNL1        0.0367
     37 C          63.5459   87.8394   16.0377 C.3     1  UNL1        0.1426
     38 C          62.5298   86.2596   17.8326 C.3     1  UNL1        0.1741
     39 O          63.2251   86.4551   16.5180 O.3     1  UNL1       -0.3511
@<TRIPOS>BOND
     1    38    39    1
     2    39    37    1
     3    37    36    1
     4    36    35    1
     5    35    25    1
     6    25    26   ar
     7    26    27   ar
     8    27    24    1
     9    24     1    1
    10     1     2   am
    11     2     3    2
    12     4     2    1
    13     4     5    1
    14     5     6    1
    15     6     7    1
    16     7     8    1
    17     9     8    1
    18     9    10    1
    19    10    11    1
    20    11    12    1
    21    12    13   ar
    22    13    14   ar
    23    14    15    1
    24    14    16   ar
    25    16    17    1
    26    16    18   ar
    27    18    19   ar
    28     1    21    1
    29    21    22    1
    30    22    23    1
    31    27    28   ar
    32    28    29   ar
    33    29    30   ar
    34    30    31   ar
    35    31    32   ar
    36    32    33   ar
    37    33    34   ar
    38    34    25   ar
    39     9     4    1
    40    19    12   ar
    41    23    21    1
    42    33    28   ar
    43    19     9    1
    44     6    20    1
@<TRIPOS>MOLECULE
*****
 39 44 0 0 0
SMALL
GASTEIGER

@<TRIPOS>ATOM
      1 N          62.2303   89.3089   13.0021 N.am    1  UNL1       -0.2770
      2 C          63.1645   88.1910   12.6449 C.2     1  UNL1        0.2294
      3 O          64.4448   88.0115   13.4056 O.2     1  UNL1       -0.2747
      4 C          62.8184   87.2525   11.5271 C.3     1  UNL1        0.1211
      5 C          62.4133   87.7967   10.1892 C.3     1  UNL1        0.0804
      6 N          62.0672   86.8582    9.0715 N.3     1  UNL1       -0.2969
      7 C          62.1262   85.3756    9.2915 C.3     1  UNL1        0.0714
      8 C          62.5312   84.8314   10.6293 C.3     1  UNL1        0.0490
      9 C          62.8773   85.7699   11.7471 C.3     1  UNL1        0.1224
     10 O          63.2496   86.5809   12.9529 O.3     1  UNL1       -0.3492
     11 C          63.5836   85.6315   14.0651 C.3     1  UNL1        0.1687
     12 C          63.4178   84.2336   13.5467 C.ar    1  UNL1        0.0079
     13 C          63.6078   82.8940   14.1941 C.ar    1  UNL1        0.0299
     14 C          63.3615   81.6398   13.4089 C.ar    1  UNL1        0.1671
     15 F          63.5515   80.3002   14.0563 F       1  UNL1       -0.2018
     16 C          62.9250   81.7254   11.9764 C.ar    1  UNL1        0.1671
     17 F          62.6786   80.4713   11.1912 F       1  UNL1       -0.2018
     18 C          62.7349   83.0651   11.3290 C.ar    1  UNL1        0.0297
     19 C          62.9813   84.3192   12.1141 C.ar    1  UNL1        0.0033
     20 H          62.7048   87.0674    8.3033 H       1  UNL1        0.1233
     21 C          60.9500   89.4883   12.2413 C.3     1  UNL1        0.0758
     22 C          59.5808   89.0015   11.8694 C.3     1  UNL1        0.0215
     23 C          60.1017   90.2859   11.2957 C.3     1  UNL1        0.0215
     24 C          62.5764   90.2473   14.1199 C.3     1  UNL1        0.1200
     25 C          65.8529   92.2055   15.2060 C.ar    1  UNL1       -0.0224
     26 C          64.6081   91.3722   15.2845 C.ar    1  UNL1       -0.0069
     27 C          63.8211   91.0806   14.0413 C.ar    1  UNL1       -0.0026
     28 C          64.2789   91.6224   12.7195 C.ar    1  UNL1       -0.0024
     29 C          63.4918   91.3308   11.4764 C.ar    1  UNL1       -0.0003
     30 C          63.9496   91.8725   10.1547 C.ar    1  UNL1       -0.0000
     31 C          65.1944   92.7058   10.0761 C.ar    1  UNL1       -0.0000
     32 C          65.9814   92.9974   11.3193 C.ar    1  UNL1       -0.0000
     33 C          65.5236   92.4557   12.6410 C.ar    1  UNL1       -0.0006
     34 C          66.3107   92.7472   13.8843 C.ar    1  UNL1       -0.0043
     35 C          66.6399   92.4970   16.4493 C.3     1  UNL1        0.0289
     36 C          68.1049   92.1791   16.5013 C.3     1  UNL1        0.0367
     37 C          69.1098   93.1966   16.0486 C.3     1  UNL1        0.1426
     38 C          69.5954   91.9176   13.8399 C.3     1  UNL1        0.1741
     39 O          69.5925   93.1936   14.6284 O.3     1  UNL1       -0.3511
@<TRIPOS>BOND
     1    38    39    1
     2    39    37    1
     3    37    36    1
     4    36    35    1
     5    35    25    1
     6    25    26   ar
     7    26    27   ar
     8    27    24    1
     9    24     1    1
    10     1     2   am
    11     2     3    2
    12     4     2    1
    13     4     5    1
    14     5     6    1
    15     6     7    1
    16     7     8    1
    17     9     8    1
    18     9    10    1
    19    10    11    1
    20    11    12    1
    21    12    13   ar
    22    13    14   ar
    23    14    15    1
    24    14    16   ar
    25    16    17    1
    26    16    18   ar
    27    18    19   ar
    28     1    21    1
    29    21    22    1
    30    22    23    1
    31    27    28   ar
    32    28    29   ar
    33    29    30   ar
    34    30    31   ar
    35    31    32   ar
    36    32    33   ar
    37    33    34   ar
    38    34    25   ar
    39     9     4    1
    40    19    12   ar
    41    23    21    1
    42    33    28   ar
    43    19     9    1
    44     6    20    1
@<TRIPOS>MOLECULE
*****
 39 44 0 0 0
SMALL
GASTEIGER

@<TRIPOS>ATOM
      1 N          61.5012   88.3597   11.6325 N.am    1  UNL1       -0.2770
      2 C          62.8986   88.8111   11.9383 C.2     1  UNL1        0.2294
      3 O          63.8117   87.9326   12.7411 O.2     1  UNL1       -0.2747
      4 C          63.3828   90.1411   11.4414 C.3     1  UNL1        0.1211
      5 C          62.9936   90.6176   10.0735 C.3     1  UNL1        0.0804
      6 N          63.4778   91.9475    9.5766 N.3     1  UNL1       -0.2969
      7 C          64.3513   92.8008   10.4477 C.3     1  UNL1        0.0714
      8 C          64.7405   92.3243   11.8157 C.3     1  UNL1        0.0490
      9 C          64.2563   90.9944   12.3126 C.3     1  UNL1        0.1224
     10 O          63.8509   89.6945   12.9419 O.3     1  UNL1       -0.3492
     11 C          64.4633   89.6308   14.3097 C.3     1  UNL1        0.1687
     12 C          65.2472   90.8913   14.5258 C.ar    1  UNL1        0.0079
     13 C          66.0609   91.3806   15.6869 C.ar    1  UNL1        0.0299
     14 C          66.7468   92.7126   15.6139 C.ar    1  UNL1        0.1671
     15 F          67.5605   93.2019   16.7750 F       1  UNL1       -0.2018
     16 C          66.6188   93.5554   14.3796 C.ar    1  UNL1        0.1671
     17 F          67.3046   94.8874   14.3066 F       1  UNL1       -0.2018
     18 C          65.8050   93.0661   13.2184 C.ar    1  UNL1        0.0297
     19 C          65.1192   91.7341   13.2915 C.ar    1  UNL1        0.0033
     20 H          62.6486   92.5003    9.3594 H       1  UNL1        0.1233
     21 C          60.5880   89.2383   10.8297 C.3     1  UNL1        0.0758
     22 C          59.6779   90.4271   10.7387 C.3     1  UNL1        0.0215
     23 C          59.9166   89.5711    9.5304 C.3     1  UNL1        0.0215
     24 C          61.0169   87.0299   12.1294 C.3     1  UNL1        0.1200
     25 C          63.0611   83.6861   12.7541 C.ar    1  UNL1       -0.0224
     26 C          62.2536   84.9232   13.0139 C.ar    1  UNL1       -0.0069
     27 C          61.8245   85.7928   11.8696 C.ar    1  UNL1       -0.0026
     28 C          62.2029   85.4253   10.4653 C.ar    1  UNL1       -0.0024
     29 C          61.7738   86.2949    9.3210 C.ar    1  UNL1       -0.0003
     30 C          62.1522   85.9274    7.9168 C.ar    1  UNL1       -0.0000
     31 C          62.9598   84.6904    7.6570 C.ar    1  UNL1       -0.0000
     32 C          63.3889   83.8208    8.8014 C.ar    1  UNL1       -0.0000
     33 C          63.0105   84.1883   10.2055 C.ar    1  UNL1       -0.0006
     34 C          63.4396   83.3186   11.3500 C.ar    1  UNL1       -0.0043
     35 C          63.4903   82.8165   13.8986 C.3     1  UNL1        0.0289
     36 C          63.5431   81.3270   13.7300 C.3     1  UNL1        0.0367
     37 C          62.2725   80.5304   13.6964 C.3     1  UNL1        0.1426
     38 C          59.7315   80.3256   14.1976 C.3     1  UNL1        0.1741
     39 O          61.0049   81.1170   14.2432 O.3     1  UNL1       -0.3511
@<TRIPOS>BOND
     1    38    39    1
     2    39    37    1
     3    37    36    1
     4    36    35    1
     5    35    25    1
     6    25    26   ar
     7    26    27   ar
     8    27    24    1
     9    24     1    1
    10     1     2   am
    11     2     3    2
    12     4     2    1
    13     4     5    1
    14     5     6    1
    15     6     7    1
    16     7     8    1
    17     9     8    1
    18     9    10    1
    19    10    11    1
    20    11    12    1
    21    12    13   ar
    22    13    14   ar
    23    14    15    1
    24    14    16   ar
    25    16    17    1
    26    16    18   ar
    27    18    19   ar
    28     1    21    1
    29    21    22    1
    30    22    23    1
    31    27    28   ar
    32    28    29   ar
    33    29    30   ar
    34    30    31   ar
    35    31    32   ar
    36    32    33   ar
    37    33    34   ar
    38    34    25   ar
    39     9     4    1
    40    19    12   ar
    41    23    21    1
    42    33    28   ar
    43    19     9    1
    44     6    20    1
@<TRIPOS>MOLECULE
*****
 39 44 0 0 0
SMALL
GASTEIGER

@<TRIPOS>ATOM
      1 N          61.4440   88.3842   11.4728 N.am    1  UNL1       -0.2770
      2 C          62.8291   88.8288   11.8389 C.2     1  UNL1        0.2294
      3 O          63.7036   87.9445   12.6774 O.2     1  UNL1       -0.2747
      4 C          63.3396   90.1579   11.3665 C.3     1  UNL1        0.1211
      5 C          62.9729   90.6600   10.0015 C.3     1  UNL1        0.0804
      6 N          63.4834   91.9890    9.5291 N.3     1  UNL1       -0.2969
      7 C          64.3606   92.8158   10.4218 C.3     1  UNL1        0.0714
      8 C          64.7273   92.3137   11.7868 C.3     1  UNL1        0.0490
      9 C          64.2168   90.9847   12.2592 C.3     1  UNL1        0.1224
     10 O          63.7842   89.6825   12.8653 O.3     1  UNL1       -0.3492
     11 C          64.3805   89.5895   14.2385 C.3     1  UNL1        0.1687
     12 C          65.1817   90.8342   14.4812 C.ar    1  UNL1        0.0079
     13 C          65.9903   91.2939   15.6579 C.ar    1  UNL1        0.0299
     14 C          66.6978   92.6158   15.6115 C.ar    1  UNL1        0.1671
     15 F          67.5064   93.0754   16.7882 F       1  UNL1       -0.2018
     16 C          66.5966   93.4780   14.3882 C.ar    1  UNL1        0.1671
     17 F          67.3041   94.7998   14.3417 F       1  UNL1       -0.2018
     18 C          65.7880   93.0184   13.2114 C.ar    1  UNL1        0.0297
     19 C          65.0805   91.6965   13.2578 C.ar    1  UNL1        0.0033
     20 H          62.6654   92.5580    9.3111 H       1  UNL1        0.1233
     21 C          60.5695   89.2687   10.6343 C.3     1  UNL1        0.0758
     22 C          59.9420   89.5980    9.3123 C.3     1  UNL1        0.0215
     23 C          59.6824   90.4711   10.5040 C.3     1  UNL1        0.0215
     24 C          60.9335   87.0553   11.9452 C.3     1  UNL1        0.1200
     25 C          63.0375   83.8199   12.8700 C.ar    1  UNL1       -0.0224
     26 C          62.1850   85.0455   13.0150 C.ar    1  UNL1       -0.0069
     27 C          61.7861   85.8297   11.8002 C.ar    1  UNL1       -0.0026
     28 C          62.2398   85.3883   10.4402 C.ar    1  UNL1       -0.0024
     29 C          61.8409   86.1725    9.2254 C.ar    1  UNL1       -0.0003
     30 C          62.2946   85.7311    7.8655 C.ar    1  UNL1       -0.0000
     31 C          63.1471   84.5055    7.7205 C.ar    1  UNL1       -0.0000
     32 C          63.5460   83.7213    8.9353 C.ar    1  UNL1       -0.0000
     33 C          63.0923   84.1627   10.2952 C.ar    1  UNL1       -0.0006
     34 C          63.4912   83.3785   11.5101 C.ar    1  UNL1       -0.0043
     35 C          63.4364   83.0357   14.0849 C.3     1  UNL1        0.0289
     36 C          63.3261   83.6548   15.4467 C.3     1  UNL1        0.0367
     37 C          64.0486   84.9338   15.7499 C.3     1  UNL1        0.1426
     38 C          62.6356   86.2475   17.4900 C.3     1  UNL1        0.1741
     39 O          63.2744   86.1593   16.1357 O.3     1  UNL1       -0.3511
@<TRIPOS>BOND
     1    38    39    1
     2    39    37    1
     3    37    36    1
     4    36    35    1
     5    35    25    1
     6    25    26   ar
     7    26    27   ar
     8    27    24    1
     9    24     1    1
    10     1     2   am
    11     2     3    2
    12     4     2    1
    13     4     5    1
    14     5     6    1
    15     6     7    1
    16     7     8    1
    17     9     8    1
    18     9    10    1
    19    10    11    1
    20    11    12    1
    21    12    13   ar
    22    13    14   ar
    23    14    15    1
    24    14    16   ar
    25    16    17    1
    26    16    18   ar
    27    18    19   ar
    28     1    21    1
    29    21    22    1
    30    22    23    1
    31    27    28   ar
    32    28    29   ar
    33    29    30   ar
    34    30    31   ar
    35    31    32   ar
    36    32    33   ar
    37    33    34   ar
    38    34    25   ar
    39     9     4    1
    40    19    12   ar
    41    23    21    1
    42    33    28   ar
    43    19     9    1
    44     6    20    1
@<TRIPOS>MOLECULE
*****
 39 44 0 0 0
SMALL
GASTEIGER

@<TRIPOS>ATOM
      1 N          61.6631   88.2378   11.5965 N.am    1  UNL1       -0.2770
      2 C          63.0116   88.7838   11.9618 C.2     1  UNL1        0.2294
      3 O          63.9375   87.9797   12.8255 O.2     1  UNL1       -0.2747
      4 C          63.4341   90.1341   11.4634 C.3     1  UNL1        0.1211
      5 C          62.9933   90.6054   10.1093 C.3     1  UNL1        0.0804
      6 N          63.4158   91.9556    9.6110 N.3     1  UNL1       -0.2969
      7 C          64.2792   92.8344   10.4666 C.3     1  UNL1        0.0714
      8 C          64.7201   92.3631   11.8206 C.3     1  UNL1        0.0490
      9 C          64.2975   91.0129   12.3190 C.3     1  UNL1        0.1224
     10 O          63.9560   89.6947   12.9481 O.3     1  UNL1       -0.3492
     11 C          64.6047   89.6441   14.2996 C.3     1  UNL1        0.1687
     12 C          65.3472   90.9310   14.5059 C.ar    1  UNL1        0.0079
     13 C          66.1716   91.4419   15.6501 C.ar    1  UNL1        0.0299
     14 C          66.8061   92.7988   15.5704 C.ar    1  UNL1        0.1671
     15 F          67.6305   93.3096   16.7146 F       1  UNL1       -0.2018
     16 C          66.6163   93.6447   14.3463 C.ar    1  UNL1        0.1671
     17 F          67.2508   95.0015   14.2666 F       1  UNL1       -0.2018
     18 C          65.7918   93.1339   13.2020 C.ar    1  UNL1        0.0297
     19 C          65.1573   91.7770   13.2818 C.ar    1  UNL1        0.0033
     20 H          62.5617   92.4791    9.4189 H       1  UNL1        0.1233
     21 C          60.7372   89.0420   10.7328 C.3     1  UNL1        0.0758
     22 C          60.1061   89.3044    9.3975 C.3     1  UNL1        0.0215
     23 C          59.7645   90.1724   10.5721 C.3     1  UNL1        0.0215
     24 C          61.2406   86.8876   12.0949 C.3     1  UNL1        0.1200
     25 C          63.0224   84.2289    9.7484 C.ar    1  UNL1       -0.0224
     26 C          62.2864   85.4573   10.1948 C.ar    1  UNL1       -0.0069
     27 C          61.9766   85.6592   11.6485 C.ar    1  UNL1       -0.0026
     28 C          62.4030   84.6328   12.6558 C.ar    1  UNL1       -0.0024
     29 C          62.0933   84.8347   14.1095 C.ar    1  UNL1       -0.0003
     30 C          62.5196   83.8083   15.1168 C.ar    1  UNL1       -0.0000
     31 C          63.2557   82.5799   14.6704 C.ar    1  UNL1       -0.0000
     32 C          63.5654   82.3779   13.2167 C.ar    1  UNL1       -0.0000
     33 C          63.1391   83.4044   12.2094 C.ar    1  UNL1       -0.0006
     34 C          63.4488   83.2025   10.7557 C.ar    1  UNL1       -0.0043
     35 C          63.3322   84.0270    8.2946 C.3     1  UNL1        0.0289
     36 C          62.8090   84.9947    7.2749 C.3     1  UNL1        0.0367
     37 C          61.6817   84.5942    6.3700 C.3     1  UNL1        0.1426
     38 C          59.9603   86.0792    7.6276 C.3     1  UNL1        0.1741
     39 O          60.2646   84.8946    6.7592 O.3     1  UNL1       -0.3511
@<TRIPOS>BOND
     1    38    39    1
     2    39    37    1
     3    37    36    1
     4    36    35    1
     5    35    25    1
     6    25    26   ar
     7    26    27   ar
     8    27    24    1
     9    24     1    1
    10     1     2   am
    11     2     3    2
    12     4     2    1
    13     4     5    1
    14     5     6    1
    15     6     7    1
    16     7     8    1
    17     9     8    1
    18     9    10    1
    19    10    11    1
    20    11    12    1
    21    12    13   ar
    22    13    14   ar
    23    14    15    1
    24    14    16   ar
    25    16    17    1
    26    16    18   ar
    27    18    19   ar
    28     1    21    1
    29    21    22    1
    30    22    23    1
    31    27    28   ar
    32    28    29   ar
    33    29    30   ar
    34    30    31   ar
    35    31    32   ar
    36    32    33   ar
    37    33    34   ar
    38    34    25   ar
    39     9     4    1
    40    19    12   ar
    41    23    21    1
    42    33    28   ar
    43    19     9    1
    44     6    20    1
@<TRIPOS>MOLECULE
*****
 39 44 0 0 0
SMALL
GASTEIGER

@<TRIPOS>ATOM
      1 N          61.8336   90.4566   11.2692 N.am    1  UNL1       -0.2770
      2 C          62.6757   89.4721   10.5130 C.2     1  UNL1        0.2294
      3 O          64.0650   89.8446   10.0875 O.2     1  UNL1       -0.2747
      4 C          62.1284   88.1152   10.1823 C.3     1  UNL1        0.1211
      5 C          61.3257   87.9147    8.9312 C.3     1  UNL1        0.0804
      6 N          60.7785   86.5578    8.6006 N.3     1  UNL1       -0.2969
      7 C          61.0339   85.4014    9.5211 C.3     1  UNL1        0.0714
      8 C          61.8366   85.6019   10.7723 C.3     1  UNL1        0.0490
      9 C          62.3838   86.9588   11.1029 C.3     1  UNL1        0.1224
     10 O          62.9920   88.2506   11.5628 O.3     1  UNL1       -0.3492
     11 C          63.7033   87.9929   12.8580 C.3     1  UNL1        0.1687
     12 C          63.5349   86.5418   13.1987 C.ar    1  UNL1        0.0079
     13 C          64.0186   85.7198   14.3563 C.ar    1  UNL1        0.0299
     14 C          63.6869   84.2587   14.4294 C.ar    1  UNL1        0.1671
     15 F          64.1707   83.4368   15.5871 F       1  UNL1       -0.2018
     16 C          62.8715   83.6197   13.3447 C.ar    1  UNL1        0.1671
     17 F          62.5398   82.1587   13.4177 F       1  UNL1       -0.2018
     18 C          62.3876   84.4416   12.1869 C.ar    1  UNL1        0.0297
     19 C          62.7193   85.9027   12.1139 C.ar    1  UNL1        0.0033
     20 H          61.1606   86.2999    7.6907 H       1  UNL1        0.1233
     21 C          60.4442   90.0841   11.6946 C.3     1  UNL1        0.0758
     22 C          58.9952   90.4381   11.8529 C.3     1  UNL1        0.0215
     23 C          59.4868   89.0848   12.2733 C.3     1  UNL1        0.0215
     24 C          62.3808   91.8134   11.5998 C.3     1  UNL1        0.1200
     25 C          66.1056   92.7542   10.6043 C.ar    1  UNL1       -0.0224
     26 C          64.6231   92.5457   10.5108 C.ar    1  UNL1       -0.0069
     27 C          63.8633   92.0219   11.6933 C.ar    1  UNL1       -0.0026
     28 C          64.5860   91.7065   12.9694 C.ar    1  UNL1       -0.0024
     29 C          63.8263   91.1827   14.1518 C.ar    1  UNL1       -0.0003
     30 C          64.5490   90.8673   15.4278 C.ar    1  UNL1       -0.0000
     31 C          66.0315   91.0758   15.5213 C.ar    1  UNL1       -0.0000
     32 C          66.7913   91.5996   14.3388 C.ar    1  UNL1       -0.0000
     33 C          66.0685   91.9149   13.0628 C.ar    1  UNL1       -0.0006
     34 C          66.8283   92.4388   11.8802 C.ar    1  UNL1       -0.0043
     35 C          66.8653   93.2780    9.4217 C.3     1  UNL1        0.0289
     36 C          67.7012   94.5162    9.5559 C.3     1  UNL1        0.0367
     37 C          67.0612   95.8685    9.4488 C.3     1  UNL1        0.1426
     38 C          65.7981   96.8552   11.4936 C.3     1  UNL1        0.1741
     39 O          65.7764   96.1495   10.1702 O.3     1  UNL1       -0.3511
@<TRIPOS>BOND
     1    38    39    1
     2    39    37    1
     3    37    36    1
     4    36    35    1
     5    35    25    1
     6    25    26   ar
     7    26    27   ar
     8    27    24    1
     9    24     1    1
    10     1     2   am
    11     2     3    2
    12     4     2    1
    13     4     5    1
    14     5     6    1
    15     6     7    1
    16     7     8    1
    17     9     8    1
    18     9    10    1
    19    10    11    1
    20    11    12    1
    21    12    13   ar
    22    13    14   ar
    23    14    15    1
    24    14    16   ar
    25    16    17    1
    26    16    18   ar
    27    18    19   ar
    28     1    21    1
    29    21    22    1
    30    22    23    1
    31    27    28   ar
    32    28    29   ar
    33    29    30   ar
    34    30    31   ar
    35    31    32   ar
    36    32    33   ar
    37    33    34   ar
    38    34    25   ar
    39     9     4    1
    40    19    12   ar
    41    23    21    1
    42    33    28   ar
    43    19     9    1
    44     6    20    1
