@<TRIPOS>MOLECULE
*****
 29 32 0 0 0
SMALL
GASTEIGER

@<TRIPOS>ATOM
      1 C          62.4700   90.2897   11.3475 C.3     1  UNL1        0.0840
      2 C          62.9040   91.0146   10.1081 C.3     1  UNL1        0.0240
      3 C          64.0433   91.9883   10.1689 C.3     1  UNL1        0.0419
      4 C          64.7487   92.2372   11.4692 C.2     1  UNL1        0.0178
      5 C          64.3146   91.5123   12.7086 C.2     1  UNL1       -0.0279
      6 C          63.1753   90.5386   12.6478 C.3     1  UNL1        0.0410
      7 C          65.1934   91.9596   13.8390 C.3     1  UNL1        0.0634
      8 C          65.2300   91.5844   15.2908 C.2     1  UNL1       -0.0204
      9 C          66.2438   92.2107   16.2018 C.2     1  UNL1       -0.0045
     10 C          67.2210   93.2120   15.6610 C.2     1  UNL1       -0.0032
     11 C          67.1844   93.5871   14.2092 C.2     1  UNL1       -0.0061
     12 C          66.1706   92.9609   13.2982 C.3     1  UNL1        0.1028
     13 N          65.8957   93.1325   11.8336 N.pl3   1  UNL1       -0.3036
     14 C          60.2031   89.4186   12.2708 C.3     1  UNL1        0.1149
     15 N          61.3305   89.3159   11.2867 N.3     1  UNL1       -0.1551
     16 S          61.3187   88.2397   10.2420 S.O2    1  UNL1        0.0633
     17 O          60.2105   88.9500    9.5228 O.2     1  UNL1       -0.1528
     18 O          62.4269   87.5293   10.9613 O.2     1  UNL1       -0.1528
     19 C          61.3069   87.1634    9.1973 C.ar    1  UNL1        0.1223
     20 C          62.5435   86.3543    8.9400 C.ar    1  UNL1        0.0222
     21 C          62.5316   85.2781    7.8953 C.ar    1  UNL1        0.0310
     22 C          61.2832   85.0108    7.1078 C.ar    1  UNL1        0.1402
     23 F          61.2714   83.9345    6.0631 F       1  UNL1       -0.2042
     24 C          60.0466   85.8200    7.3651 C.ar    1  UNL1        0.0310
     25 C          60.0585   86.8962    8.4099 C.ar    1  UNL1        0.0222
     26 C          66.6376   94.0400   10.8977 C.3     1  UNL1        0.1330
     27 C          67.6209   93.4678    9.9202 C.2     1  UNL1        0.0704
     28 O          68.4994   92.3210   10.3243 O.co2   1  UNL1       -0.5474
     29 O          67.7258   94.0422    8.5385 O.co2   1  UNL1       -0.5474
@<TRIPOS>UNITY_ATOM_ATTR
28 1
charge -1
@<TRIPOS>BOND
     1    14    15    1
     2     1    15    1
     3     1     2    1
     4     2     3    1
     5     3     4    1
     6     4     5    2
     7     5     6    1
     8     5     7    1
     9     7     8    1
    10     8     9    2
    11     9    10    1
    12    10    11    2
    13    11    12    1
    14    12    13    1
    15    13    26    1
    16    26    27    1
    17    27    28   ar
    18    27    29   ar
    19    15    16    1
    20    16    17    2
    21    16    18    2
    22    16    19    1
    23    19    20   ar
    24    20    21   ar
    25    21    22   ar
    26    22    23    1
    27    22    24   ar
    28    24    25   ar
    29     6     1    1
    30    12     7    1
    31    25    19   ar
    32    13     4    1
@<TRIPOS>MOLECULE
*****
 29 32 0 0 0
SMALL
GASTEIGER

@<TRIPOS>ATOM
      1 C          62.4433   89.5826   11.3123 C.3     1  UNL1        0.0840
      2 C          62.6067   90.3657   10.0435 C.3     1  UNL1        0.0240
      3 C          63.5534   91.5282    9.9963 C.3     1  UNL1        0.0419
      4 C          64.3368   91.9076   11.2180 C.2     1  UNL1        0.0178
      5 C          64.1734   91.1244   12.4868 C.2     1  UNL1       -0.0279
      6 C          63.2266   89.9619   12.5340 C.3     1  UNL1        0.0410
      7 C          65.0729   91.7290   13.5239 C.3     1  UNL1        0.0634
      8 C          65.3299   91.3756   14.9588 C.2     1  UNL1       -0.0204
      9 C          66.3062   92.1790   15.7658 C.2     1  UNL1       -0.0045
     10 C          67.0255   93.3359   15.1378 C.2     1  UNL1       -0.0032
     11 C          66.7685   93.6893   13.7029 C.2     1  UNL1       -0.0061
     12 C          65.7922   92.8858   12.8959 C.3     1  UNL1        0.1028
     13 N          65.3373   92.9962   11.4709 N.pl3   1  UNL1       -0.3036
     14 C          60.0409   88.6493   11.6401 C.3     1  UNL1        0.1149
     15 N          61.4965   88.4200   11.3595 N.3     1  UNL1       -0.1551
     16 S          62.0053   87.0284   11.1262 S.O2    1  UNL1        0.0633
     17 O          62.8057   87.1088   12.3922 O.2     1  UNL1       -0.1528
     18 O          61.2048   86.9481    9.8601 O.2     1  UNL1       -0.1528
     19 C          62.5141   85.6368   10.8927 C.ar    1  UNL1        0.1223
     20 C          62.5537   84.6530   12.0243 C.ar    1  UNL1        0.0222
     21 C          63.0625   83.2614   11.7908 C.ar    1  UNL1        0.0310
     22 C          63.5318   82.8535   10.4257 C.ar    1  UNL1        0.1402
     23 F          64.0406   81.4619   10.1922 F       1  UNL1       -0.2042
     24 C          63.4922   83.8374    9.2941 C.ar    1  UNL1        0.0310
     25 C          62.9834   85.2290    9.5276 C.ar    1  UNL1        0.0222
     26 C          65.8014   94.0161   10.4737 C.3     1  UNL1        0.1330
     27 C          67.1020   93.8220    9.7522 C.2     1  UNL1        0.0704
     28 O          68.1174   92.8543   10.2838 O.co2   1  UNL1       -0.5474
     29 O          67.3874   94.5956    8.4992 O.co2   1  UNL1       -0.5474
@<TRIPOS>UNITY_ATOM_ATTR
28 1
charge -1
@<TRIPOS>BOND
     1    14    15    1
     2     1    15    1
     3     1     2    1
     4     2     3    1
     5     3     4    1
     6     4     5    2
     7     5     6    1
     8     5     7    1
     9     7     8    1
    10     8     9    2
    11     9    10    1
    12    10    11    2
    13    11    12    1
    14    12    13    1
    15    13    26    1
    16    26    27    1
    17    27    28   ar
    18    27    29   ar
    19    15    16    1
    20    16    17    2
    21    16    18    2
    22    16    19    1
    23    19    20   ar
    24    20    21   ar
    25    21    22   ar
    26    22    23    1
    27    22    24   ar
    28    24    25   ar
    29     6     1    1
    30    12     7    1
    31    25    19   ar
    32    13     4    1
@<TRIPOS>MOLECULE
*****
 29 32 0 0 0
SMALL
GASTEIGER

@<TRIPOS>ATOM
      1 C          62.1570   89.6917   12.2620 C.3     1  UNL1        0.0840
      2 C          62.6979   89.2599   13.5928 C.3     1  UNL1        0.0240
      3 C          63.9417   89.8960   14.1390 C.3     1  UNL1        0.0419
      4 C          64.6446   90.9639   13.3543 C.2     1  UNL1        0.0178
      5 C          64.1037   91.3957   12.0236 C.2     1  UNL1       -0.0279
      6 C          62.8599   90.7596   11.4774 C.3     1  UNL1        0.0410
      7 C          65.0054   92.4647   11.4814 C.3     1  UNL1        0.0634
      8 C          64.9684   93.2593   10.2097 C.2     1  UNL1       -0.0204
      9 C          66.0296   94.2828    9.9337 C.2     1  UNL1       -0.0045
     10 C          67.1278   94.5117   10.9294 C.2     1  UNL1       -0.0032
     11 C          67.1649   93.7172   12.2011 C.2     1  UNL1       -0.0061
     12 C          66.1037   92.6937   12.4771 C.3     1  UNL1        0.1028
     13 N          65.8807   91.7661   13.6346 N.pl3   1  UNL1       -0.3036
     14 C          59.5765   89.3933   12.3069 C.3     1  UNL1        0.1149
     15 N          60.9131   89.0556   11.7158 N.3     1  UNL1       -0.1551
     16 S          61.0060   88.0818   10.5786 S.O2    1  UNL1        0.0633
     17 O          60.5247   89.1413    9.6321 O.2     1  UNL1       -0.1528
     18 O          61.4872   87.0223   11.5252 O.2     1  UNL1       -0.1528
     19 C          61.0989   87.1081    9.4415 C.ar    1  UNL1        0.1223
     20 C          59.9110   86.8733    8.5562 C.ar    1  UNL1        0.0222
     21 C          60.0040   85.8995    7.4191 C.ar    1  UNL1        0.0310
     22 C          61.2847   85.1604    7.1672 C.ar    1  UNL1        0.1402
     23 F          61.3777   84.1866    6.0301 F       1  UNL1       -0.2042
     24 C          62.4726   85.3952    8.0526 C.ar    1  UNL1        0.0310
     25 C          62.3797   86.3691    9.1898 C.ar    1  UNL1        0.0222
     26 C          66.7425   91.6595   14.8577 C.3     1  UNL1        0.1330
     27 C          66.6207   92.6780   15.9521 C.2     1  UNL1        0.0704
     28 O          67.6880   93.7166   16.1323 O.co2   1  UNL1       -0.5474
     29 O          65.4318   92.6580   16.8664 O.co2   1  UNL1       -0.5474
@<TRIPOS>UNITY_ATOM_ATTR
28 1
charge -1
@<TRIPOS>BOND
     1    14    15    1
     2     1    15    1
     3     1     2    1
     4     2     3    1
     5     3     4    1
     6     4     5    2
     7     5     6    1
     8     5     7    1
     9     7     8    1
    10     8     9    2
    11     9    10    1
    12    10    11    2
    13    11    12    1
    14    12    13    1
    15    13    26    1
    16    26    27    1
    17    27    28   ar
    18    27    29   ar
    19    15    16    1
    20    16    17    2
    21    16    18    2
    22    16    19    1
    23    19    20   ar
    24    20    21   ar
    25    21    22   ar
    26    22    23    1
    27    22    24   ar
    28    24    25   ar
    29     6     1    1
    30    12     7    1
    31    25    19   ar
    32    13     4    1
@<TRIPOS>MOLECULE
*****
 29 32 0 0 0
SMALL
GASTEIGER

@<TRIPOS>ATOM
      1 C          64.5236   89.9319   13.7987 C.3     1  UNL1        0.0840
      2 C          64.8315   88.7832   14.7129 C.3     1  UNL1        0.0240
      3 C          64.3152   87.4115   14.3938 C.3     1  UNL1        0.0419
      4 C          63.4911   87.1884   13.1605 C.2     1  UNL1        0.0178
      5 C          63.1832   88.3371   12.2463 C.2     1  UNL1       -0.0279
      6 C          63.6995   89.7088   12.5654 C.3     1  UNL1        0.0410
      7 C          62.3521   87.8163   11.1113 C.3     1  UNL1        0.0634
      8 C          61.7562   88.4912    9.9116 C.2     1  UNL1       -0.0204
      9 C          60.9544   87.6955    8.9247 C.2     1  UNL1       -0.0045
     10 C          60.7486   86.2250    9.1374 C.2     1  UNL1       -0.0032
     11 C          61.3446   85.5502   10.3371 C.2     1  UNL1       -0.0061
     12 C          62.1464   86.3458   11.3241 C.3     1  UNL1        0.1028
     13 N          62.8503   85.9578   12.5905 N.pl3   1  UNL1       -0.3036
     14 C          64.9722   91.8221   15.5238 C.3     1  UNL1        0.1149
     15 N          65.0398   91.3037   14.1178 N.3     1  UNL1       -0.1551
     16 S          65.6235   92.1570   13.0310 S.O2    1  UNL1        0.0633
     17 O          64.2448   92.4388   12.5118 O.2     1  UNL1       -0.1528
     18 O          67.0023   91.8750   13.5503 O.2     1  UNL1       -0.1528
     19 C          66.2073   93.0102   11.9443 C.ar    1  UNL1        0.1223
     20 C          66.9161   92.3703   10.7875 C.ar    1  UNL1        0.0222
     21 C          67.4999   93.2237    9.7007 C.ar    1  UNL1        0.0310
     22 C          67.3749   94.7168    9.7707 C.ar    1  UNL1        0.1402
     23 F          67.9586   95.5701    8.6839 F       1  UNL1       -0.2042
     24 C          66.6660   95.3567   10.9275 C.ar    1  UNL1        0.0310
     25 C          66.0822   94.5033   12.0143 C.ar    1  UNL1        0.0222
     26 C          62.9040   84.5808   13.1830 C.3     1  UNL1        0.1330
     27 C          62.9322   84.4057   14.6724 C.2     1  UNL1        0.0704
     28 O          64.1448   83.8235   15.3363 O.co2   1  UNL1       -0.5474
     29 O          61.7479   84.8127   15.4981 O.co2   1  UNL1       -0.5474
@<TRIPOS>UNITY_ATOM_ATTR
28 1
charge -1
@<TRIPOS>BOND
     1    14    15    1
     2     1    15    1
     3     1     2    1
     4     2     3    1
     5     3     4    1
     6     4     5    2
     7     5     6    1
     8     5     7    1
     9     7     8    1
    10     8     9    2
    11     9    10    1
    12    10    11    2
    13    11    12    1
    14    12    13    1
    15    13    26    1
    16    26    27    1
    17    27    28   ar
    18    27    29   ar
    19    15    16    1
    20    16    17    2
    21    16    18    2
    22    16    19    1
    23    19    20   ar
    24    20    21   ar
    25    21    22   ar
    26    22    23    1
    27    22    24   ar
    28    24    25   ar
    29     6     1    1
    30    12     7    1
    31    25    19   ar
    32    13     4    1
@<TRIPOS>MOLECULE
*****
 29 32 0 0 0
SMALL
GASTEIGER

@<TRIPOS>ATOM
      1 C          64.0638   89.8159   13.1405 C.3     1  UNL1        0.0840
      2 C          63.2102   89.8814   11.9088 C.3     1  UNL1        0.0240
      3 C          62.5840   88.6324   11.3631 C.3     1  UNL1        0.0419
      4 C          62.8114   87.3179   12.0490 C.2     1  UNL1        0.0178
      5 C          63.6650   87.2524   13.2807 C.2     1  UNL1       -0.0279
      6 C          64.2912   88.5015   13.8265 C.3     1  UNL1        0.0410
      7 C          63.7099   85.8247   13.7383 C.3     1  UNL1        0.0634
      8 C          64.3961   85.1630   14.8964 C.2     1  UNL1       -0.0204
      9 C          64.2563   83.6842   15.1057 C.2     1  UNL1       -0.0045
     10 C          63.4304   82.8672   14.1568 C.2     1  UNL1       -0.0032
     11 C          62.7443   83.5289   12.9987 C.2     1  UNL1       -0.0061
     12 C          62.8840   85.0076   12.7894 C.3     1  UNL1        0.1028
     13 N          62.3288   85.9305   11.7454 N.pl3   1  UNL1       -0.3036
     14 C          64.6709   91.3300   15.1626 C.3     1  UNL1        0.1149
     15 N          64.6900   91.0650   13.6863 N.3     1  UNL1       -0.1551
     16 S          65.3351   92.0488   12.7559 S.O2    1  UNL1        0.0633
     17 O          66.6788   91.7117   13.3310 O.2     1  UNL1       -0.1528
     18 O          63.9913   92.3860   12.1807 O.2     1  UNL1       -0.1528
     19 C          65.9802   93.0327   11.8254 C.ar    1  UNL1        0.1223
     20 C          66.6680   92.5501   10.5828 C.ar    1  UNL1        0.0222
     21 C          67.3130   93.5340    9.6524 C.ar    1  UNL1        0.0310
     22 C          67.2704   95.0006    9.9644 C.ar    1  UNL1        0.1402
     23 F          67.9154   95.9845    9.0340 F       1  UNL1       -0.2042
     24 C          66.5825   95.4832   11.2071 C.ar    1  UNL1        0.0310
     25 C          65.9375   94.4993   12.1375 C.ar    1  UNL1        0.0222
     26 C          61.4458   85.5354   10.5990 C.3     1  UNL1        0.1330
     27 C          61.7782   85.9841    9.2069 C.2     1  UNL1        0.0704
     28 O          63.0662   85.5561    8.5683 O.co2   1  UNL1       -0.5474
     29 O          60.8226   86.8610    8.4533 O.co2   1  UNL1       -0.5474
@<TRIPOS>UNITY_ATOM_ATTR
28 1
charge -1
@<TRIPOS>BOND
     1    14    15    1
     2     1    15    1
     3     1     2    1
     4     2     3    1
     5     3     4    1
     6     4     5    2
     7     5     6    1
     8     5     7    1
     9     7     8    1
    10     8     9    2
    11     9    10    1
    12    10    11    2
    13    11    12    1
    14    12    13    1
    15    13    26    1
    16    26    27    1
    17    27    28   ar
    18    27    29   ar
    19    15    16    1
    20    16    17    2
    21    16    18    2
    22    16    19    1
    23    19    20   ar
    24    20    21   ar
    25    21    22   ar
    26    22    23    1
    27    22    24   ar
    28    24    25   ar
    29     6     1    1
    30    12     7    1
    31    25    19   ar
    32    13     4    1
@<TRIPOS>MOLECULE
*****
 29 32 0 0 0
SMALL
GASTEIGER

@<TRIPOS>ATOM
      1 C          63.8428   87.7207   14.4828 C.3     1  UNL1        0.0840
      2 C          63.2744   87.9324   13.1109 C.3     1  UNL1        0.0240
      3 C          63.5671   89.2007   12.3654 C.3     1  UNL1        0.0419
      4 C          64.4280   90.2573   12.9918 C.2     1  UNL1        0.0178
      5 C          64.9964   90.0455   14.3637 C.2     1  UNL1       -0.0279
      6 C          64.7038   88.7772   15.1092 C.3     1  UNL1        0.0410
      7 C          65.8054   91.2567   14.7223 C.3     1  UNL1        0.0634
      8 C          66.5955   91.6092   15.9477 C.2     1  UNL1       -0.0204
      9 C          67.3173   92.9219   16.0227 C.2     1  UNL1       -0.0045
     10 C          67.2489   93.8822   14.8724 C.2     1  UNL1       -0.0032
     11 C          66.4589   93.5297   13.6470 C.2     1  UNL1       -0.0061
     12 C          65.7371   92.2169   13.5720 C.3     1  UNL1        0.1028
     13 N          64.8858   91.5993   12.5025 N.pl3   1  UNL1       -0.3036
     14 C          63.3994   86.4773   16.7205 C.3     1  UNL1        0.1149
     15 N          63.5502   86.4523   15.2283 N.3     1  UNL1       -0.1551
     16 S          63.4084   85.1591   14.4817 S.O2    1  UNL1        0.0633
     17 O          64.8234   85.2823   13.9995 O.2     1  UNL1       -0.1528
     18 O          61.9933   85.0359   14.9639 O.2     1  UNL1       -0.1528
     19 C          63.2665   83.8659   13.7350 C.ar    1  UNL1        0.1223
     20 C          63.9546   83.6827   12.4148 C.ar    1  UNL1        0.0222
     21 C          63.8126   82.3895   11.6683 C.ar    1  UNL1        0.0310
     22 C          62.9826   81.2794   12.2418 C.ar    1  UNL1        0.1402
     23 F          62.8407   79.9862   11.4952 F       1  UNL1       -0.2042
     24 C          62.2945   81.4627   13.5620 C.ar    1  UNL1        0.0310
     25 C          62.4364   82.7560   14.3086 C.ar    1  UNL1        0.0222
     26 C          64.5511   92.2155   11.1765 C.3     1  UNL1        0.1330
     27 C          65.5413   93.1126   10.4950 C.2     1  UNL1        0.0704
     28 O          65.2749   94.5855   10.3962 O.co2   1  UNL1       -0.5474
     29 O          66.7980   92.5371    9.9124 O.co2   1  UNL1       -0.5474
@<TRIPOS>UNITY_ATOM_ATTR
28 1
charge -1
@<TRIPOS>BOND
     1    14    15    1
     2     1    15    1
     3     1     2    1
     4     2     3    1
     5     3     4    1
     6     4     5    2
     7     5     6    1
     8     5     7    1
     9     7     8    1
    10     8     9    2
    11     9    10    1
    12    10    11    2
    13    11    12    1
    14    12    13    1
    15    13    26    1
    16    26    27    1
    17    27    28   ar
    18    27    29   ar
    19    15    16    1
    20    16    17    2
    21    16    18    2
    22    16    19    1
    23    19    20   ar
    24    20    21   ar
    25    21    22   ar
    26    22    23    1
    27    22    24   ar
    28    24    25   ar
    29     6     1    1
    30    12     7    1
    31    25    19   ar
    32    13     4    1
@<TRIPOS>MOLECULE
*****
 29 32 0 0 0
SMALL
GASTEIGER

@<TRIPOS>ATOM
      1 C          64.0874   90.6990   12.6457 C.3     1  UNL1        0.0840
      2 C          63.1253   90.8909   11.5110 C.3     1  UNL1        0.0240
      3 C          62.3638   89.7186   10.9670 C.3     1  UNL1        0.0419
      4 C          62.5645   88.3545   11.5577 C.2     1  UNL1        0.0178
      5 C          63.5266   88.1626   12.6924 C.2     1  UNL1       -0.0279
      6 C          64.2880   89.3349   13.2364 C.3     1  UNL1        0.0410
      7 C          63.5160   86.7106   13.0687 C.3     1  UNL1        0.0634
      8 C          64.2633   85.9398   14.1163 C.2     1  UNL1       -0.0204
      9 C          64.0418   84.4634   14.2617 C.2     1  UNL1       -0.0045
     10 C          63.0732   83.7578   13.3596 C.2     1  UNL1       -0.0032
     11 C          62.3259   84.5287   12.3120 C.2     1  UNL1       -0.0061
     12 C          62.5474   86.0050   12.1666 C.3     1  UNL1        0.1028
     13 N          61.9593   87.0210   11.2328 N.pl3   1  UNL1       -0.3036
     14 C          64.9898   92.0513   14.6722 C.3     1  UNL1        0.1149
     15 N          64.8488   91.8714   13.1897 N.3     1  UNL1       -0.1551
     16 S          65.4692   92.8636   12.2513 S.O2    1  UNL1        0.0633
     17 O          65.8019   93.7535   13.4121 O.2     1  UNL1       -0.1528
     18 O          65.1366   91.9736   11.0905 O.2     1  UNL1       -0.1528
     19 C          66.0896   93.8557   11.3129 C.ar    1  UNL1        0.1223
     20 C          65.9842   95.3246   11.5974 C.ar    1  UNL1        0.0222
     21 C          66.6046   96.3167   10.6589 C.ar    1  UNL1        0.0310
     22 C          67.3304   95.8399    9.4358 C.ar    1  UNL1        0.1402
     23 F          67.9508   96.8320    8.4972 F       1  UNL1       -0.2042
     24 C          67.4357   94.3709    9.1513 C.ar    1  UNL1        0.0310
     25 C          66.8153   93.3788   10.0898 C.ar    1  UNL1        0.0222
     26 C          60.9442   86.7509   10.1619 C.3     1  UNL1        0.1330
     27 C          61.3808   86.2027    8.8358 C.2     1  UNL1        0.0704
     28 O          60.3716   85.9743    7.7497 O.co2   1  UNL1       -0.5474
     29 O          62.8265   85.8830    8.5955 O.co2   1  UNL1       -0.5474
@<TRIPOS>UNITY_ATOM_ATTR
28 1
charge -1
@<TRIPOS>BOND
     1    14    15    1
     2     1    15    1
     3     1     2    1
     4     2     3    1
     5     3     4    1
     6     4     5    2
     7     5     6    1
     8     5     7    1
     9     7     8    1
    10     8     9    2
    11     9    10    1
    12    10    11    2
    13    11    12    1
    14    12    13    1
    15    13    26    1
    16    26    27    1
    17    27    28   ar
    18    27    29   ar
    19    15    16    1
    20    16    17    2
    21    16    18    2
    22    16    19    1
    23    19    20   ar
    24    20    21   ar
    25    21    22   ar
    26    22    23    1
    27    22    24   ar
    28    24    25   ar
    29     6     1    1
    30    12     7    1
    31    25    19   ar
    32    13     4    1
@<TRIPOS>MOLECULE
*****
 29 32 0 0 0
SMALL
GASTEIGER

@<TRIPOS>ATOM
      1 C          63.2994   85.9630   13.3974 C.3     1  UNL1        0.0840
      2 C          62.4443   86.0545   12.1683 C.3     1  UNL1        0.0240
      3 C          62.3118   87.3604   11.4425 C.3     1  UNL1        0.0419
      4 C          63.0342   88.5749   11.9457 C.2     1  UNL1        0.0178
      5 C          63.8892   88.4834   13.1748 C.2     1  UNL1       -0.0279
      6 C          64.0218   87.1774   13.9006 C.3     1  UNL1        0.0410
      7 C          64.4774   89.8390   13.4323 C.3     1  UNL1        0.0634
      8 C          65.3970   90.3472   14.5028 C.2     1  UNL1       -0.0204
      9 C          65.8250   91.7848   14.5035 C.2     1  UNL1       -0.0045
     10 C          65.3335   92.7142   13.4336 C.2     1  UNL1       -0.0032
     11 C          64.4139   92.2060   12.3631 C.2     1  UNL1       -0.0061
     12 C          63.9858   90.7684   12.3625 C.3     1  UNL1        0.1028
     13 N          63.0939   89.9871   11.4437 N.pl3   1  UNL1       -0.3036
     14 C          63.7298   84.6429   15.5933 C.3     1  UNL1        0.1149
     15 N          63.4320   84.6569   14.1233 N.3     1  UNL1       -0.1551
     16 S          63.2667   83.3651   13.3791 S.O2    1  UNL1        0.0633
     17 O          62.0516   83.0480   14.1994 O.2     1  UNL1       -0.1528
     18 O          64.4818   83.6823   12.5587 O.2     1  UNL1       -0.1528
     19 C          63.1015   82.0733   12.6349 C.ar    1  UNL1        0.1223
     20 C          63.3668   82.0184   11.1596 C.ar    1  UNL1        0.0222
     21 C          63.2016   80.7266   10.4154 C.ar    1  UNL1        0.0310
     22 C          62.7710   79.4896   11.1465 C.ar    1  UNL1        0.1402
     23 F          62.6057   78.1977   10.4023 F       1  UNL1       -0.2042
     24 C          62.5056   79.5445   12.6219 C.ar    1  UNL1        0.0310
     25 C          62.6708   80.8364   13.3660 C.ar    1  UNL1        0.0222
     26 C          62.3860   90.5239   10.2351 C.3     1  UNL1        0.1330
     27 C          60.9615   90.1380    9.9672 C.2     1  UNL1        0.0704
     28 O          60.6435   89.1462    8.8876 O.co2   1  UNL1       -0.5474
     29 O          59.8550   90.7437   10.7787 O.co2   1  UNL1       -0.5474
@<TRIPOS>UNITY_ATOM_ATTR
28 1
charge -1
@<TRIPOS>BOND
     1    14    15    1
     2     1    15    1
     3     1     2    1
     4     2     3    1
     5     3     4    1
     6     4     5    2
     7     5     6    1
     8     5     7    1
     9     7     8    1
    10     8     9    2
    11     9    10    1
    12    10    11    2
    13    11    12    1
    14    12    13    1
    15    13    26    1
    16    26    27    1
    17    27    28   ar
    18    27    29   ar
    19    15    16    1
    20    16    17    2
    21    16    18    2
    22    16    19    1
    23    19    20   ar
    24    20    21   ar
    25    21    22   ar
    26    22    23    1
    27    22    24   ar
    28    24    25   ar
    29     6     1    1
    30    12     7    1
    31    25    19   ar
    32    13     4    1
