@<TRIPOS>MOLECULE
*****
 32 36 0 0 0
SMALL
GASTEIGER

@<TRIPOS>ATOM
      1 O          63.5974   87.1798   13.5419 O.2     1  UNL1       -0.2698
      2 C          63.1129   86.3095   12.4204 C.2     1  UNL1        0.2507
      3 N          62.3340   86.9099   11.2878 N.am    1  UNL1       -0.2723
      4 C          61.8496   86.0395   10.1663 C.3     1  UNL1        0.1257
      5 C          61.0707   86.6400    9.0336 C.3     1  UNL1        0.1637
      6 O          60.7763   88.1108    9.0225 O.3     1  UNL1       -0.3502
      7 C          61.2608   88.9811   10.1440 C.3     1  UNL1        0.1622
      8 C          62.0396   88.3807   11.2766 C.3     1  UNL1        0.1096
      9 C          63.4073   84.8386   12.4315 C.ar    1  UNL1        0.0752
     10 C          63.7085   84.1243   11.1474 C.ar    1  UNL1        0.0357
     11 C          64.0029   82.6536   11.1585 C.ar    1  UNL1        0.1404
     12 F          64.3042   81.9393    9.8743 F       1  UNL1       -0.2042
     13 C          63.9961   81.8971   12.4537 C.ar    1  UNL1        0.0312
     14 C          63.6949   82.6114   13.7379 C.ar    1  UNL1        0.0234
     15 C          63.4005   84.0822   13.7268 C.ar    1  UNL1        0.1074
     16 N          63.0993   84.7965   15.0109 N.ar    1  UNL1       -0.1477
     17 N          61.7424   84.9690   15.6266 N.ar    1  UNL1       -0.1447
     18 C          61.9066   85.7428   16.9011 C.ar    1  UNL1        0.1446
     19 C          63.3650   86.0486   17.0731 C.ar    1  UNL1        0.1446
     20 N          64.1021   85.4638   15.9049 N.ar    1  UNL1       -0.1447
     21 C          62.5241   89.2511   12.3982 C.3     1  UNL1        0.0488
     22 C          63.5023   90.3543   12.1226 C.ar    1  UNL1       -0.0189
     23 C          63.5154   91.0275   10.7822 C.ar    1  UNL1       -0.0041
     24 C          64.4936   92.1308   10.5066 C.ar    1  UNL1        0.0012
     25 C          65.4587   92.5607   11.5713 C.ar    1  UNL1        0.0191
     26 C          65.4456   91.8874   12.9117 C.ar    1  UNL1        0.0825
     27 C          64.4674   90.7842   13.1873 C.ar    1  UNL1        0.0149
     28 N          66.4108   92.3174   13.9764 N.ar    1  UNL1       -0.2282
     29 C          66.0916   92.5129   15.4290 C.ar    1  UNL1        0.1020
     30 C          67.3481   92.9437   16.1259 C.ar    1  UNL1        0.0431
     31 C          68.4439   93.0144   15.1040 C.ar    1  UNL1        0.1221
     32 N          67.8646   92.6274   13.7755 N.ar    1  UNL1       -0.1635
@<TRIPOS>BOND
     1     1     2    2
     2     2     9    1
     3     9    10   ar
     4    10    11   ar
     5    11    12    1
     6    11    13   ar
     7    13    14   ar
     8    14    15   ar
     9    15    16    1
    10    16    17   ar
    11    17    18   ar
    12    18    19   ar
    13    19    20   ar
    14     2     3   am
    15     3     4    1
    16     4     5    1
    17     5     6    1
    18     6     7    1
    19     7     8    1
    20     8    21    1
    21    21    22    1
    22    22    23   ar
    23    23    24   ar
    24    24    25   ar
    25    25    26   ar
    26    26    28    1
    27    28    29   ar
    28    29    30   ar
    29    30    31   ar
    30    31    32   ar
    31    26    27   ar
    32    15     9   ar
    33    20    16   ar
    34     8     3    1
    35    27    22   ar
    36    32    28   ar
@<TRIPOS>MOLECULE
*****
 32 36 0 0 0
SMALL
GASTEIGER

@<TRIPOS>ATOM
      1 O          62.7015   90.0312   11.5028 O.2     1  UNL1       -0.2698
      2 C          62.7038   88.5316   11.5380 C.2     1  UNL1        0.2507
      3 N          63.3297   87.8096   12.6942 N.am    1  UNL1       -0.2723
      4 C          63.3320   86.3100   12.7294 C.3     1  UNL1        0.1257
      5 C          63.9579   85.5879   13.8858 C.3     1  UNL1        0.1637
      6 O          64.5814   86.3654   15.0068 O.3     1  UNL1       -0.3502
      7 C          64.5790   87.8650   14.9715 C.3     1  UNL1        0.1622
      8 C          63.9532   88.5871   13.8153 C.3     1  UNL1        0.1096
      9 C          62.0803   87.7541   10.4169 C.ar    1  UNL1        0.0752
     10 C          62.9052   86.7781    9.6315 C.ar    1  UNL1        0.0357
     11 C          62.2818   86.0006    8.5105 C.ar    1  UNL1        0.1404
     12 F          63.1067   85.0246    7.7251 F       1  UNL1       -0.2042
     13 C          60.8334   86.1991    8.1749 C.ar    1  UNL1        0.0312
     14 C          60.0084   87.1751    8.9603 C.ar    1  UNL1        0.0234
     15 C          60.6319   87.9526   10.0813 C.ar    1  UNL1        0.1074
     16 N          59.8070   88.9286   10.8667 N.ar    1  UNL1       -0.1477
     17 N          59.5842   90.3717   10.5234 N.ar    1  UNL1       -0.1447
     18 C          58.6995   90.9679   11.5778 C.ar    1  UNL1        0.1446
     19 C          58.3754   89.8933   12.5729 C.ar    1  UNL1        0.1446
     20 N          59.0599   88.6330   12.1334 N.ar    1  UNL1       -0.1447
     21 C          63.9508   90.0867   13.7801 C.3     1  UNL1        0.0488
     22 C          65.2473   90.8371   13.7029 C.ar    1  UNL1       -0.0189
     23 C          66.1347   90.9272   14.9088 C.ar    1  UNL1       -0.0041
     24 C          67.4312   91.6776   14.8317 C.ar    1  UNL1        0.0012
     25 C          67.8403   92.3380   13.5485 C.ar    1  UNL1        0.0191
     26 C          66.9528   92.2478   12.3425 C.ar    1  UNL1        0.0825
     27 C          65.6564   91.4974   12.4197 C.ar    1  UNL1        0.0149
     28 N          67.3619   92.9082   11.0593 N.ar    1  UNL1       -0.2282
     29 C          68.0384   92.2388    9.8998 C.ar    1  UNL1        0.1020
     30 C          68.2609   93.2708    8.8342 C.ar    1  UNL1        0.0431
     31 C          67.7220   94.5779    9.3350 C.ar    1  UNL1        0.1221
     32 N          67.1663   94.3539   10.7102 N.ar    1  UNL1       -0.1635
@<TRIPOS>BOND
     1     1     2    2
     2     2     9    1
     3     9    10   ar
     4    10    11   ar
     5    11    12    1
     6    11    13   ar
     7    13    14   ar
     8    14    15   ar
     9    15    16    1
    10    16    17   ar
    11    17    18   ar
    12    18    19   ar
    13    19    20   ar
    14     2     3   am
    15     3     4    1
    16     4     5    1
    17     5     6    1
    18     6     7    1
    19     7     8    1
    20     8    21    1
    21    21    22    1
    22    22    23   ar
    23    23    24   ar
    24    24    25   ar
    25    25    26   ar
    26    26    28    1
    27    28    29   ar
    28    29    30   ar
    29    30    31   ar
    30    31    32   ar
    31    26    27   ar
    32    15     9   ar
    33    20    16   ar
    34     8     3    1
    35    27    22   ar
    36    32    28   ar
@<TRIPOS>MOLECULE
*****
 32 36 0 0 0
SMALL
GASTEIGER

@<TRIPOS>ATOM
      1 O          63.6317   87.5518   13.5527 O.2     1  UNL1       -0.2698
      2 C          62.9997   87.2152   12.2347 C.2     1  UNL1        0.2507
      3 N          62.2752   88.2743   11.4580 N.am    1  UNL1       -0.2723
      4 C          61.6432   87.9376   10.1399 C.3     1  UNL1        0.1257
      5 C          60.9186   88.9968    9.3632 C.3     1  UNL1        0.1637
      6 O          60.8259   90.3925    9.9047 O.3     1  UNL1       -0.3502
      7 C          61.4579   90.7292   11.2228 C.3     1  UNL1        0.1622
      8 C          62.1824   89.6701   11.9994 C.3     1  UNL1        0.1096
      9 C          63.0925   85.8193   11.6932 C.ar    1  UNL1        0.0752
     10 C          63.1134   85.5896   10.2111 C.ar    1  UNL1        0.0357
     11 C          63.2061   84.1939    9.6696 C.ar    1  UNL1        0.1404
     12 F          63.2271   83.9642    8.1875 F       1  UNL1       -0.2042
     13 C          63.2779   83.0278   10.6104 C.ar    1  UNL1        0.0312
     14 C          63.2569   83.2574   12.0925 C.ar    1  UNL1        0.0234
     15 C          63.1642   84.6532   12.6340 C.ar    1  UNL1        0.1074
     16 N          63.1432   84.8829   14.1161 N.ar    1  UNL1       -0.1477
     17 N          64.3256   85.2303   14.9713 N.ar    1  UNL1       -0.1447
     18 C          63.8493   85.3676   16.3871 C.ar    1  UNL1        0.1446
     19 C          62.3726   85.1050   16.4069 C.ar    1  UNL1        0.1446
     20 N          61.9363   84.8055   15.0034 N.ar    1  UNL1       -0.1447
     21 C          62.8144   90.0068   13.3175 C.3     1  UNL1        0.0488
     22 C          64.1262   90.7330   13.3566 C.ar    1  UNL1       -0.0189
     23 C          65.0487   90.5527   14.5255 C.ar    1  UNL1       -0.0041
     24 C          66.3606   91.2790   14.5647 C.ar    1  UNL1        0.0012
     25 C          66.7500   92.1855   13.4348 C.ar    1  UNL1        0.0191
     26 C          65.8274   92.3658   12.2658 C.ar    1  UNL1        0.0825
     27 C          64.5156   91.6396   12.2267 C.ar    1  UNL1        0.0149
     28 N          66.2168   93.2724   11.1360 N.ar    1  UNL1       -0.2282
     29 C          67.1834   92.9457   10.0365 C.ar    1  UNL1        0.1020
     30 C          67.2720   94.1362    9.1282 C.ar    1  UNL1        0.0431
     31 C          66.3600   95.1986    9.6664 C.ar    1  UNL1        0.1221
     32 N          65.7079   94.6648   10.9073 N.ar    1  UNL1       -0.1635
@<TRIPOS>BOND
     1     1     2    2
     2     2     9    1
     3     9    10   ar
     4    10    11   ar
     5    11    12    1
     6    11    13   ar
     7    13    14   ar
     8    14    15   ar
     9    15    16    1
    10    16    17   ar
    11    17    18   ar
    12    18    19   ar
    13    19    20   ar
    14     2     3   am
    15     3     4    1
    16     4     5    1
    17     5     6    1
    18     6     7    1
    19     7     8    1
    20     8    21    1
    21    21    22    1
    22    22    23   ar
    23    23    24   ar
    24    24    25   ar
    25    25    26   ar
    26    26    28    1
    27    28    29   ar
    28    29    30   ar
    29    30    31   ar
    30    31    32   ar
    31    26    27   ar
    32    15     9   ar
    33    20    16   ar
    34     8     3    1
    35    27    22   ar
    36    32    28   ar
@<TRIPOS>MOLECULE
*****
 32 36 0 0 0
SMALL
GASTEIGER

@<TRIPOS>ATOM
      1 O          61.7958   85.6262   13.0472 O.2     1  UNL1       -0.2698
      2 C          62.3878   84.5879   12.1408 C.2     1  UNL1        0.2507
      3 N          62.6292   84.9045   10.6947 N.am    1  UNL1       -0.2723
      4 C          63.2213   83.8662    9.7883 C.3     1  UNL1        0.1257
      5 C          63.4626   84.1829    8.3420 C.3     1  UNL1        0.1637
      6 O          63.1119   85.5377    7.8022 O.3     1  UNL1       -0.3502
      7 C          62.5198   86.5759    8.7086 C.3     1  UNL1        0.1622
      8 C          62.2785   86.2594   10.1548 C.3     1  UNL1        0.1096
      9 C          62.7386   83.2331   12.6807 C.ar    1  UNL1        0.0752
     10 C          62.5123   82.0100   11.8423 C.ar    1  UNL1        0.0357
     11 C          62.8630   80.6552   12.3821 C.ar    1  UNL1        0.1404
     12 F          62.6366   79.4322   11.5437 F       1  UNL1       -0.2042
     13 C          63.4400   80.5235   13.7604 C.ar    1  UNL1        0.0312
     14 C          63.6663   81.7465   14.5988 C.ar    1  UNL1        0.0234
     15 C          63.3156   83.1013   14.0590 C.ar    1  UNL1        0.1074
     16 N          63.5419   84.3243   14.8974 N.ar    1  UNL1       -0.1477
     17 N          62.7190   84.7491   16.0774 N.ar    1  UNL1       -0.1447
     18 C          63.2994   86.0246   16.6123 C.ar    1  UNL1        0.1446
     19 C          64.4810   86.3882   15.7630 C.ar    1  UNL1        0.1446
     20 N          64.6309   85.3374   14.7031 N.ar    1  UNL1       -0.1447
     21 C          61.6864   87.2976   11.0611 C.3     1  UNL1        0.0488
     22 C          62.2825   88.6729   11.1163 C.ar    1  UNL1       -0.0189
     23 C          62.2072   89.5715    9.9176 C.ar    1  UNL1       -0.0041
     24 C          62.8033   90.9470    9.9728 C.ar    1  UNL1        0.0012
     25 C          63.4746   91.4237   11.2266 C.ar    1  UNL1        0.0191
     26 C          63.5499   90.5250   12.4252 C.ar    1  UNL1        0.0825
     27 C          62.9538   89.1496   12.3701 C.ar    1  UNL1        0.0149
     28 N          64.2213   91.0017   13.6790 N.ar    1  UNL1       -0.2282
     29 C          65.6496   91.4433   13.8012 C.ar    1  UNL1        0.1020
     30 C          65.8933   91.8351   15.2284 C.ar    1  UNL1        0.0431
     31 C          64.6155   91.6355   15.9885 C.ar    1  UNL1        0.1221
     32 N          63.5821   91.1205   15.0309 N.ar    1  UNL1       -0.1635
@<TRIPOS>BOND
     1     1     2    2
     2     2     9    1
     3     9    10   ar
     4    10    11   ar
     5    11    12    1
     6    11    13   ar
     7    13    14   ar
     8    14    15   ar
     9    15    16    1
    10    16    17   ar
    11    17    18   ar
    12    18    19   ar
    13    19    20   ar
    14     2     3   am
    15     3     4    1
    16     4     5    1
    17     5     6    1
    18     6     7    1
    19     7     8    1
    20     8    21    1
    21    21    22    1
    22    22    23   ar
    23    23    24   ar
    24    24    25   ar
    25    25    26   ar
    26    26    28    1
    27    28    29   ar
    28    29    30   ar
    29    30    31   ar
    30    31    32   ar
    31    26    27   ar
    32    15     9   ar
    33    20    16   ar
    34     8     3    1
    35    27    22   ar
    36    32    28   ar
@<TRIPOS>MOLECULE
*****
 32 36 0 0 0
SMALL
GASTEIGER

@<TRIPOS>ATOM
      1 O          63.6710   88.6155   12.2750 O.2     1  UNL1       -0.2698
      2 C          63.5042   87.5937   13.3605 C.2     1  UNL1        0.2507
      3 N          63.4068   88.0297   14.7924 N.am    1  UNL1       -0.2723
      4 C          63.2400   87.0080   15.8778 C.3     1  UNL1        0.1257
      5 C          63.1426   87.4440   17.3098 C.3     1  UNL1        0.1637
      6 O          63.2120   88.9018   17.6562 O.3     1  UNL1       -0.3502
      7 C          63.3788   89.9235   16.5708 C.3     1  UNL1        0.1622
      8 C          63.4762   89.4875   15.1389 C.3     1  UNL1        0.1096
      9 C          63.4348   86.1359   13.0139 C.ar    1  UNL1        0.0752
     10 C          64.2094   85.1357   13.8200 C.ar    1  UNL1        0.0357
     11 C          64.1400   83.6780   13.4735 C.ar    1  UNL1        0.1404
     12 F          64.9146   82.6778   14.2795 F       1  UNL1       -0.2042
     13 C          63.2961   83.2204   12.3210 C.ar    1  UNL1        0.0312
     14 C          62.5215   84.2206   11.5150 C.ar    1  UNL1        0.0234
     15 C          62.5908   85.6783   11.8614 C.ar    1  UNL1        0.1074
     16 N          61.8162   86.6785   11.0554 N.ar    1  UNL1       -0.1477
     17 N          60.6023   87.4306   11.5145 N.ar    1  UNL1       -0.1447
     18 C          60.1554   88.3191   10.3916 C.ar    1  UNL1        0.1446
     19 C          61.0931   88.1161    9.2385 C.ar    1  UNL1        0.1446
     20 N          62.1195   87.1021    9.6488 N.ar    1  UNL1       -0.1447
     21 C          63.6430   90.5093   14.0535 C.3     1  UNL1        0.0488
     22 C          64.9682   91.1835   13.8552 C.ar    1  UNL1       -0.0189
     23 C          66.0653   90.9907   14.8597 C.ar    1  UNL1       -0.0041
     24 C          67.3906   91.6649   14.6615 C.ar    1  UNL1        0.0012
     25 C          67.6186   92.5318   13.4588 C.ar    1  UNL1        0.0191
     26 C          66.5214   92.7245   12.4543 C.ar    1  UNL1        0.0825
     27 C          65.1962   92.0504   12.6525 C.ar    1  UNL1        0.0149
     28 N          66.7494   93.5914   11.2516 N.ar    1  UNL1       -0.2282
     29 C          66.0898   94.9104   10.9777 C.ar    1  UNL1        0.1020
     30 C          66.6098   95.4257    9.6684 C.ar    1  UNL1        0.0431
     31 C          67.5909   94.4252    9.1333 C.ar    1  UNL1        0.1221
     32 N          67.6772   93.2915   10.1117 N.ar    1  UNL1       -0.1635
@<TRIPOS>BOND
     1     1     2    2
     2     2     9    1
     3     9    10   ar
     4    10    11   ar
     5    11    12    1
     6    11    13   ar
     7    13    14   ar
     8    14    15   ar
     9    15    16    1
    10    16    17   ar
    11    17    18   ar
    12    18    19   ar
    13    19    20   ar
    14     2     3   am
    15     3     4    1
    16     4     5    1
    17     5     6    1
    18     6     7    1
    19     7     8    1
    20     8    21    1
    21    21    22    1
    22    22    23   ar
    23    23    24   ar
    24    24    25   ar
    25    25    26   ar
    26    26    28    1
    27    28    29   ar
    28    29    30   ar
    29    30    31   ar
    30    31    32   ar
    31    26    27   ar
    32    15     9   ar
    33    20    16   ar
    34     8     3    1
    35    27    22   ar
    36    32    28   ar
@<TRIPOS>MOLECULE
*****
 32 36 0 0 0
SMALL
GASTEIGER

@<TRIPOS>ATOM
      1 O          63.0325   89.5929   10.7730 O.2     1  UNL1       -0.2698
      2 C          62.6614   88.1531   10.9713 C.2     1  UNL1        0.2507
      3 N          63.0985   87.4298   12.2105 N.am    1  UNL1       -0.2723
      4 C          62.7274   85.9900   12.4088 C.3     1  UNL1        0.1257
      5 C          63.1646   85.2666   13.6481 C.3     1  UNL1        0.1637
      6 O          63.9728   85.9830   14.6890 O.3     1  UNL1       -0.3502
      7 C          64.3439   87.4228   14.4906 C.3     1  UNL1        0.1622
      8 C          63.9068   88.1462   13.2515 C.3     1  UNL1        0.1096
      9 C          61.8531   87.4367    9.9303 C.ar    1  UNL1        0.0752
     10 C          62.5100   86.4315    9.0314 C.ar    1  UNL1        0.0357
     11 C          61.7018   85.7151    7.9905 C.ar    1  UNL1        0.1404
     12 F          62.3586   84.7098    7.0916 F       1  UNL1       -0.2042
     13 C          60.2368   86.0039    7.8485 C.ar    1  UNL1        0.0312
     14 C          59.5799   87.0091    8.7474 C.ar    1  UNL1        0.0234
     15 C          60.3881   87.7255    9.7883 C.ar    1  UNL1        0.1074
     16 N          59.7313   88.7308   10.6873 N.ar    1  UNL1       -0.1477
     17 N          59.0614   88.4376   11.9970 N.ar    1  UNL1       -0.1447
     18 C          58.5451   89.7313   12.5535 C.ar    1  UNL1        0.1446
     19 C          58.8958   90.8241   11.5877 C.ar    1  UNL1        0.1446
     20 N          59.6289   90.2057   10.4343 N.ar    1  UNL1       -0.1447
     21 C          64.2779   89.5859   13.0531 C.3     1  UNL1        0.0488
     22 C          64.5899   90.4502   14.2387 C.ar    1  UNL1       -0.0189
     23 C          63.5834   90.6043   15.3401 C.ar    1  UNL1       -0.0041
     24 C          63.8954   91.4686   16.5258 C.ar    1  UNL1        0.0012
     25 C          65.2140   92.1787   16.6100 C.ar    1  UNL1        0.0191
     26 C          66.2205   92.0246   15.5085 C.ar    1  UNL1        0.0825
     27 C          65.9085   91.1603   14.3229 C.ar    1  UNL1        0.0149
     28 N          67.5391   92.7347   15.5927 N.ar    1  UNL1       -0.2282
     29 C          68.8536   92.2160   15.0897 C.ar    1  UNL1        0.1020
     30 C          69.9016   93.2490   15.3808 C.ar    1  UNL1        0.0431
     31 C          69.2348   94.4061   16.0637 C.ar    1  UNL1        0.1221
     32 N          67.7746   94.0884   16.1947 N.ar    1  UNL1       -0.1635
@<TRIPOS>BOND
     1     1     2    2
     2     2     9    1
     3     9    10   ar
     4    10    11   ar
     5    11    12    1
     6    11    13   ar
     7    13    14   ar
     8    14    15   ar
     9    15    16    1
    10    16    17   ar
    11    17    18   ar
    12    18    19   ar
    13    19    20   ar
    14     2     3   am
    15     3     4    1
    16     4     5    1
    17     5     6    1
    18     6     7    1
    19     7     8    1
    20     8    21    1
    21    21    22    1
    22    22    23   ar
    23    23    24   ar
    24    24    25   ar
    25    25    26   ar
    26    26    28    1
    27    28    29   ar
    28    29    30   ar
    29    30    31   ar
    30    31    32   ar
    31    26    27   ar
    32    15     9   ar
    33    20    16   ar
    34     8     3    1
    35    27    22   ar
    36    32    28   ar
@<TRIPOS>MOLECULE
*****
 32 36 0 0 0
SMALL
GASTEIGER

@<TRIPOS>ATOM
      1 O          63.7506   91.4851   11.9130 O.2     1  UNL1       -0.2698
      2 C          64.3006   90.8096   13.1341 C.2     1  UNL1        0.2507
      3 N          64.0807   89.3405   13.3418 N.am    1  UNL1       -0.2723
      4 C          64.6307   88.6650   14.5629 C.3     1  UNL1        0.1257
      5 C          64.4107   87.1957   14.7705 C.3     1  UNL1        0.1637
      6 O          63.6407   86.4021   13.7570 O.3     1  UNL1       -0.3502
      7 C          63.0907   87.0776   12.5359 C.3     1  UNL1        0.1622
      8 C          63.3107   88.5467   12.3283 C.3     1  UNL1        0.1096
      9 C          65.0706   91.6034   14.1477 C.ar    1  UNL1        0.0752
     10 C          64.6780   91.5541   15.5945 C.ar    1  UNL1        0.0357
     11 C          65.4479   92.3478   16.6080 C.ar    1  UNL1        0.1404
     12 F          65.0552   92.2986   18.0549 F       1  UNL1       -0.2042
     13 C          66.6105   93.1907   16.1747 C.ar    1  UNL1        0.0312
     14 C          67.0031   93.2400   14.7278 C.ar    1  UNL1        0.0234
     15 C          66.2332   92.4463   13.7143 C.ar    1  UNL1        0.1074
     16 N          66.6258   92.4955   12.2674 N.ar    1  UNL1       -0.1477
     17 N          65.8945   93.2250   11.1797 N.ar    1  UNL1       -0.1447
     18 C          66.6354   93.0043    9.8943 C.ar    1  UNL1        0.1446
     19 C          67.8247   92.1384   10.1875 C.ar    1  UNL1        0.1446
     20 N          67.8187   91.8240   11.6542 N.ar    1  UNL1       -0.1447
     21 C          62.7606   89.2222   11.1071 C.3     1  UNL1        0.0488
     22 C          61.6977   88.5478   10.2915 C.ar    1  UNL1       -0.0189
     23 C          60.2617   88.9511   10.4502 C.ar    1  UNL1       -0.0041
     24 C          59.1987   88.2767    9.6346 C.ar    1  UNL1        0.0012
     25 C          59.5717   87.1989    8.6603 C.ar    1  UNL1        0.0191
     26 C          61.0078   86.7955    8.5017 C.ar    1  UNL1        0.0825
     27 C          62.0708   87.4700    9.3173 C.ar    1  UNL1        0.0149
     28 N          61.3809   85.7177    7.5274 N.ar    1  UNL1       -0.2282
     29 C          62.7529   85.1449    7.3290 C.ar    1  UNL1        0.1020
     30 C          62.6674   84.0966    6.2595 C.ar    1  UNL1        0.0431
     31 C          61.2425   84.0216    5.7969 C.ar    1  UNL1        0.1221
     32 N          60.4473   85.0235    6.5805 N.ar    1  UNL1       -0.1635
@<TRIPOS>BOND
     1     1     2    2
     2     2     9    1
     3     9    10   ar
     4    10    11   ar
     5    11    12    1
     6    11    13   ar
     7    13    14   ar
     8    14    15   ar
     9    15    16    1
    10    16    17   ar
    11    17    18   ar
    12    18    19   ar
    13    19    20   ar
    14     2     3   am
    15     3     4    1
    16     4     5    1
    17     5     6    1
    18     6     7    1
    19     7     8    1
    20     8    21    1
    21    21    22    1
    22    22    23   ar
    23    23    24   ar
    24    24    25   ar
    25    25    26   ar
    26    26    28    1
    27    28    29   ar
    28    29    30   ar
    29    30    31   ar
    30    31    32   ar
    31    26    27   ar
    32    15     9   ar
    33    20    16   ar
    34     8     3    1
    35    27    22   ar
    36    32    28   ar
@<TRIPOS>MOLECULE
*****
 32 36 0 0 0
SMALL
GASTEIGER

@<TRIPOS>ATOM
      1 O          62.9164   87.8054   12.6275 O.2     1  UNL1       -0.2698
      2 C          62.7713   89.0123   11.7487 C.2     1  UNL1        0.2507
      3 N          61.7567   89.0181   10.6440 N.am    1  UNL1       -0.2723
      4 C          61.6116   90.2250    9.7652 C.3     1  UNL1        0.1257
      5 C          60.5969   90.2307    8.6604 C.3     1  UNL1        0.1637
      6 O          59.7274   89.0296    8.4344 O.3     1  UNL1       -0.3502
      7 C          59.8725   87.8226    9.3132 C.3     1  UNL1        0.1622
      8 C          60.8871   87.8169   10.4179 C.3     1  UNL1        0.1096
      9 C          63.6409   90.2135   11.9747 C.ar    1  UNL1        0.0752
     10 C          63.9954   91.1097   10.8253 C.ar    1  UNL1        0.0357
     11 C          64.8649   92.3108   11.0513 C.ar    1  UNL1        0.1404
     12 F          65.2195   93.2070    9.9018 F       1  UNL1       -0.2042
     13 C          65.3799   92.6158   12.4266 C.ar    1  UNL1        0.0312
     14 C          65.0254   91.7197   13.5761 C.ar    1  UNL1        0.0234
     15 C          64.1558   90.5185   13.3501 C.ar    1  UNL1        0.1074
     16 N          63.8013   89.6223   14.4995 N.ar    1  UNL1       -0.1477
     17 N          62.7427   89.8858   15.5290 N.ar    1  UNL1       -0.1447
     18 C          62.7302   88.7317   16.4871 C.ar    1  UNL1        0.1446
     19 C          63.7811   87.7549   16.0496 C.ar    1  UNL1        0.1446
     20 N          64.4431   88.3053   14.8213 N.ar    1  UNL1       -0.1447
     21 C          61.0322   86.6099   11.2967 C.3     1  UNL1        0.0488
     22 C          61.9380   85.4873   10.8855 C.ar    1  UNL1       -0.0189
     23 C          62.6366   85.5349    9.5590 C.ar    1  UNL1       -0.0041
     24 C          63.5425   84.4122    9.1477 C.ar    1  UNL1        0.0012
     25 C          63.7498   83.2421   10.0630 C.ar    1  UNL1        0.0191
     26 C          63.0512   83.1945   11.3896 C.ar    1  UNL1        0.0825
     27 C          62.1453   84.3172   11.8008 C.ar    1  UNL1        0.0149
     28 N          63.2584   82.0244   12.3049 N.ar    1  UNL1       -0.2282
     29 C          62.4308   80.7738   12.3384 C.ar    1  UNL1        0.1020
     30 C          62.9906   79.8759   13.4016 C.ar    1  UNL1        0.0431
     31 C          64.1642   80.5715   14.0252 C.ar    1  UNL1        0.1221
     32 N          64.3298   81.8994   13.3474 N.ar    1  UNL1       -0.1635
@<TRIPOS>BOND
     1     1     2    2
     2     2     9    1
     3     9    10   ar
     4    10    11   ar
     5    11    12    1
     6    11    13   ar
     7    13    14   ar
     8    14    15   ar
     9    15    16    1
    10    16    17   ar
    11    17    18   ar
    12    18    19   ar
    13    19    20   ar
    14     2     3   am
    15     3     4    1
    16     4     5    1
    17     5     6    1
    18     6     7    1
    19     7     8    1
    20     8    21    1
    21    21    22    1
    22    22    23   ar
    23    23    24   ar
    24    24    25   ar
    25    25    26   ar
    26    26    28    1
    27    28    29   ar
    28    29    30   ar
    29    30    31   ar
    30    31    32   ar
    31    26    27   ar
    32    15     9   ar
    33    20    16   ar
    34     8     3    1
    35    27    22   ar
    36    32    28   ar
@<TRIPOS>MOLECULE
*****
 32 36 0 0 0
SMALL
GASTEIGER

@<TRIPOS>ATOM
      1 O          63.3836   88.0709   11.7945 O.2     1  UNL1       -0.2698
      2 C          63.3854   87.4047   13.1385 C.2     1  UNL1        0.2507
      3 N          63.3366   88.2346   14.3870 N.am    1  UNL1       -0.2723
      4 C          63.3385   87.5684   15.7309 C.3     1  UNL1        0.1257
      5 C          63.2897   88.3984   16.9795 C.3     1  UNL1        0.1637
      6 O          63.2390   89.8945   16.8841 O.3     1  UNL1       -0.3502
      7 C          63.2372   90.5606   15.5401 C.3     1  UNL1        0.1622
      8 C          63.2860   89.7308   14.2916 C.3     1  UNL1        0.1096
      9 C          63.4361   85.9085   13.2339 C.ar    1  UNL1        0.0752
     10 C          64.1567   85.2538   14.3749 C.ar    1  UNL1        0.0357
     11 C          64.2074   83.7577   14.4703 C.ar    1  UNL1        0.1404
     12 F          64.9280   83.1029   15.6113 F       1  UNL1       -0.2042
     13 C          63.5374   82.9164   13.4247 C.ar    1  UNL1        0.0312
     14 C          62.8168   83.5712   12.2837 C.ar    1  UNL1        0.0234
     15 C          62.7661   85.0673   12.1883 C.ar    1  UNL1        0.1074
     16 N          62.0455   85.7220   11.0472 N.ar    1  UNL1       -0.1477
     17 N          60.8321   86.5971   11.1566 N.ar    1  UNL1       -0.1447
     18 C          60.4483   87.0326    9.7735 C.ar    1  UNL1        0.1446
     19 C          61.4246   86.4267    8.8092 C.ar    1  UNL1        0.1446
     20 N          62.4117   85.6168    9.5965 N.ar    1  UNL1       -0.1447
     21 C          63.2841   90.3969   12.9477 C.3     1  UNL1        0.0488
     22 C          64.4150   91.3017   12.5575 C.ar    1  UNL1       -0.0189
     23 C          64.4740   91.8740   11.1723 C.ar    1  UNL1       -0.0041
     24 C          65.6049   92.7789   10.7821 C.ar    1  UNL1        0.0012
     25 C          66.6770   93.1114   11.7771 C.ar    1  UNL1        0.0191
     26 C          66.6180   92.5390   13.1624 C.ar    1  UNL1        0.0825
     27 C          65.4871   91.6342   13.5526 C.ar    1  UNL1        0.0149
     28 N          67.6901   92.8714   14.1575 N.ar    1  UNL1       -0.2282
     29 C          67.5227   93.7189   15.3838 C.ar    1  UNL1        0.1020
     30 C          68.8469   93.7861   16.0852 C.ar    1  UNL1        0.0431
     31 C          69.8327   92.9801   15.2924 C.ar    1  UNL1        0.1221
     32 N          69.1178   92.4148   14.1010 N.ar    1  UNL1       -0.1635
@<TRIPOS>BOND
     1     1     2    2
     2     2     9    1
     3     9    10   ar
     4    10    11   ar
     5    11    12    1
     6    11    13   ar
     7    13    14   ar
     8    14    15   ar
     9    15    16    1
    10    16    17   ar
    11    17    18   ar
    12    18    19   ar
    13    19    20   ar
    14     2     3   am
    15     3     4    1
    16     4     5    1
    17     5     6    1
    18     6     7    1
    19     7     8    1
    20     8    21    1
    21    21    22    1
    22    22    23   ar
    23    23    24   ar
    24    24    25   ar
    25    25    26   ar
    26    26    28    1
    27    28    29   ar
    28    29    30   ar
    29    30    31   ar
    30    31    32   ar
    31    26    27   ar
    32    15     9   ar
    33    20    16   ar
    34     8     3    1
    35    27    22   ar
    36    32    28   ar
