@<TRIPOS>MOLECULE
*****
 27 29 0 0 0
SMALL
GASTEIGER

@<TRIPOS>ATOM
      1 O          61.5974   88.3886    9.3191 O.3     1  UNL1       -0.4753
      2 C          63.6989   81.3533   13.2989 C.3     1  UNL1        0.0375
      3 C          63.2522   82.6933   12.7942 C.ar    1  UNL1        0.0503
      4 C          63.3844   83.0285   11.3381 C.ar    1  UNL1       -0.0167
      5 C          63.9634   82.0236   10.3868 C.3     1  UNL1        0.0310
      6 C          62.9376   84.3685   10.8333 C.ar    1  UNL1        0.0308
      7 C          63.0699   84.7037    9.3773 C.ar    1  UNL1        0.0058
      8 C          62.6231   86.0437    8.8726 C.ar    1  UNL1        0.0371
      9 C          62.0441   87.0485    9.8239 C.ar    1  UNL1        0.1416
     10 C          61.9119   86.7134   11.2800 C.ar    1  UNL1        0.0744
     11 C          62.3587   85.3734   11.7847 C.ar    1  UNL1        0.1514
     12 O          62.2264   85.0382   13.2408 O.2     1  UNL1       -0.4212
     13 C          62.6732   83.6982   13.7455 C.ar    1  UNL1        0.3414
     14 O          62.5410   83.3630   15.2016 O.2     1  UNL1       -0.2448
     15 C          61.2697   89.4844   10.2895 C.3     1  UNL1        0.2067
     16 C          62.3736   90.2408   10.9674 C.3     1  UNL1        0.0597
     17 C          63.2289   91.1872   10.1783 C.3     1  UNL1        0.0065
     18 C          64.3327   91.9435   10.8561 C.3     1  UNL1        0.0175
     19 C          64.5812   91.7534   12.3231 C.3     1  UNL1        0.0721
     20 N          63.7260   90.8070   13.1123 N.3     1  UNL1       -0.2726
     21 C          62.6222   90.0507   12.4344 C.3     1  UNL1        0.0758
     22 C          63.9745   90.6169   14.5793 C.3     1  UNL1        0.0723
     23 C          63.8806   89.2477   15.1846 C.3     1  UNL1        0.0231
     24 C          63.1775   89.0538   16.4954 C.3     1  UNL1        0.0737
     25 C          63.1200   87.6918   17.1212 C.3     1  UNL1        0.3186
     26 F          63.3773   86.4717   16.2874 F       1  UNL1       -0.1984
     27 F          62.8051   87.5498   18.5809 F       1  UNL1       -0.1984
@<TRIPOS>BOND
     1     2     3    1
     2     3     4   ar
     3     4     5    1
     4     4     6   ar
     5     6     7   ar
     6     7     8   ar
     7     8     9   ar
     8     9     1    1
     9     1    15    1
    10    15    16    1
    11    16    17    1
    12    17    18    1
    13    18    19    1
    14    19    20    1
    15    20    22    1
    16    22    23    1
    17    23    24    1
    18    24    25    1
    19    25    26    1
    20    25    27    1
    21    20    21    1
    22     9    10   ar
    23    10    11   ar
    24    11    12   ar
    25    12    13   ar
    26    13    14    2
    27    13     3   ar
    28    11     6   ar
    29    21    16    1
@<TRIPOS>MOLECULE
*****
 27 29 0 0 0
SMALL
GASTEIGER

@<TRIPOS>ATOM
      1 O          61.3270   89.1438    9.6639 O.3     1  UNL1       -0.4753
      2 C          66.9477   93.4850   14.0585 C.3     1  UNL1        0.0375
      3 C          65.9923   92.8490   13.0926 C.ar    1  UNL1        0.0503
      4 C          65.1484   91.6876   13.5273 C.ar    1  UNL1       -0.0167
      5 C          65.2598   91.1622   14.9279 C.3     1  UNL1        0.0310
      6 C          64.1930   91.0516   12.5614 C.ar    1  UNL1        0.0308
      7 C          63.3491   89.8903   12.9961 C.ar    1  UNL1        0.0058
      8 C          62.3938   89.2543   12.0303 C.ar    1  UNL1        0.0371
      9 C          62.2824   89.7798   10.6297 C.ar    1  UNL1        0.1416
     10 C          63.1263   90.9411   10.1950 C.ar    1  UNL1        0.0744
     11 C          64.0816   91.5771   11.1609 C.ar    1  UNL1        0.1514
     12 O          64.9256   92.7385   10.7262 O.2     1  UNL1       -0.4212
     13 C          65.8809   93.3744   11.6921 C.ar    1  UNL1        0.3414
     14 O          66.7249   94.5359   11.2574 O.2     1  UNL1       -0.2448
     15 C          60.7491   87.7919    9.9609 C.3     1  UNL1        0.2067
     16 C          61.6169   86.5710    9.8806 C.3     1  UNL1        0.0597
     17 C          62.3662   86.2652    8.6177 C.3     1  UNL1        0.0065
     18 C          63.2340   85.0444    8.5374 C.3     1  UNL1        0.0175
     19 C          63.3526   84.1294    9.7201 C.3     1  UNL1        0.0721
     20 N          62.6033   84.4352   10.9830 N.3     1  UNL1       -0.2726
     21 C          61.7355   85.6560   11.0633 C.3     1  UNL1        0.0758
     22 C          62.7219   83.5202   12.1657 C.3     1  UNL1        0.0723
     23 C          63.0422   82.0691   11.9621 C.3     1  UNL1        0.0231
     24 C          62.4902   81.0399   12.9034 C.3     1  UNL1        0.0737
     25 C          61.6615   81.4664   14.0789 C.3     1  UNL1        0.3186
     26 F          62.2213   82.4332   15.0799 F       1  UNL1       -0.1984
     27 F          60.2731   80.9261   14.2532 F       1  UNL1       -0.1984
@<TRIPOS>BOND
     1     2     3    1
     2     3     4   ar
     3     4     5    1
     4     4     6   ar
     5     6     7   ar
     6     7     8   ar
     7     8     9   ar
     8     9     1    1
     9     1    15    1
    10    15    16    1
    11    16    17    1
    12    17    18    1
    13    18    19    1
    14    19    20    1
    15    20    22    1
    16    22    23    1
    17    23    24    1
    18    24    25    1
    19    25    26    1
    20    25    27    1
    21    20    21    1
    22     9    10   ar
    23    10    11   ar
    24    11    12   ar
    25    12    13   ar
    26    13    14    2
    27    13     3   ar
    28    11     6   ar
    29    21    16    1
@<TRIPOS>MOLECULE
*****
 27 29 0 0 0
SMALL
GASTEIGER

@<TRIPOS>ATOM
      1 O          61.2596   89.1736    9.6134 O.3     1  UNL1       -0.4753
      2 C          66.9311   93.4249   14.0306 C.3     1  UNL1        0.0375
      3 C          65.9714   92.8025   13.0602 C.ar    1  UNL1        0.0503
      4 C          65.0982   91.6630   13.4951 C.ar    1  UNL1       -0.0167
      5 C          65.1847   91.1459   14.9005 C.3     1  UNL1        0.0310
      6 C          64.1385   91.0407   12.5247 C.ar    1  UNL1        0.0308
      7 C          63.2654   89.9012   12.9597 C.ar    1  UNL1        0.0058
      8 C          62.3057   89.2789   11.9892 C.ar    1  UNL1        0.0371
      9 C          62.2193   89.7960   10.5838 C.ar    1  UNL1        0.1416
     10 C          63.0924   90.9354   10.1489 C.ar    1  UNL1        0.0744
     11 C          64.0521   91.5577   11.1193 C.ar    1  UNL1        0.1514
     12 O          64.9253   92.6972   10.6844 O.2     1  UNL1       -0.4212
     13 C          65.8849   93.3196   11.6548 C.ar    1  UNL1        0.3414
     14 O          66.7582   94.4590   11.2198 O.2     1  UNL1       -0.2448
     15 C          60.6825   87.8179    9.8943 C.3     1  UNL1        0.2067
     16 C          61.5712   86.6095    9.8930 C.3     1  UNL1        0.0597
     17 C          62.3191   86.2299    8.6494 C.3     1  UNL1        0.0065
     18 C          63.2078   85.0215    8.6481 C.3     1  UNL1        0.0175
     19 C          63.3484   84.1927    9.8904 C.3     1  UNL1        0.0721
     20 N          62.6005   84.5722   11.1339 N.3     1  UNL1       -0.2726
     21 C          61.7118   85.7806   11.1352 C.3     1  UNL1        0.0758
     22 C          62.7412   83.7434   12.3762 C.3     1  UNL1        0.0723
     23 C          62.9809   84.4090   13.6988 C.3     1  UNL1        0.0231
     24 C          64.2972   85.0723   13.9770 C.3     1  UNL1        0.0737
     25 C          64.4036   86.1022   15.0623 C.3     1  UNL1        0.3186
     26 F          64.7801   87.5138   14.7224 F       1  UNL1       -0.1984
     27 F          64.1333   85.7206   16.4875 F       1  UNL1       -0.1984
@<TRIPOS>BOND
     1     2     3    1
     2     3     4   ar
     3     4     5    1
     4     4     6   ar
     5     6     7   ar
     6     7     8   ar
     7     8     9   ar
     8     9     1    1
     9     1    15    1
    10    15    16    1
    11    16    17    1
    12    17    18    1
    13    18    19    1
    14    19    20    1
    15    20    22    1
    16    22    23    1
    17    23    24    1
    18    24    25    1
    19    25    26    1
    20    25    27    1
    21    20    21    1
    22     9    10   ar
    23    10    11   ar
    24    11    12   ar
    25    12    13   ar
    26    13    14    2
    27    13     3   ar
    28    11     6   ar
    29    21    16    1
@<TRIPOS>MOLECULE
*****
 27 29 0 0 0
SMALL
GASTEIGER

@<TRIPOS>ATOM
      1 O          61.7899   88.4998    9.4978 O.3     1  UNL1       -0.4753
      2 C          63.5809   81.2849   13.3042 C.3     1  UNL1        0.0375
      3 C          63.2016   82.6579   12.8339 C.ar    1  UNL1        0.0503
      4 C          63.3068   83.0080   11.3791 C.ar    1  UNL1       -0.0167
      5 C          63.7913   81.9851   10.3947 C.3     1  UNL1        0.0310
      6 C          62.9276   84.3809   10.9088 C.ar    1  UNL1        0.0308
      7 C          63.0328   84.7310    9.4540 C.ar    1  UNL1        0.0058
      8 C          62.6536   86.1040    8.9838 C.ar    1  UNL1        0.0371
      9 C          62.1691   87.1268    9.9682 C.ar    1  UNL1        0.1416
     10 C          62.0639   86.7767   11.4229 C.ar    1  UNL1        0.0744
     11 C          62.4431   85.4038   11.8932 C.ar    1  UNL1        0.1514
     12 O          62.3379   85.0536   13.3480 O.2     1  UNL1       -0.4212
     13 C          62.7171   83.6807   13.8183 C.ar    1  UNL1        0.3414
     14 O          62.6119   83.3305   15.2731 O.2     1  UNL1       -0.2448
     15 C          61.5243   89.5877   10.4957 C.3     1  UNL1        0.2067
     16 C          62.6622   90.3973   11.0434 C.3     1  UNL1        0.0597
     17 C          63.3605   91.3965   10.1694 C.3     1  UNL1        0.0065
     18 C          64.4983   92.2060   10.7171 C.3     1  UNL1        0.0175
     19 C          64.9378   92.0163   12.1386 C.3     1  UNL1        0.0721
     20 N          64.2395   91.0170   13.0126 N.3     1  UNL1       -0.2726
     21 C          63.1017   90.2075   12.4649 C.3     1  UNL1        0.0758
     22 C          64.6791   90.8273   14.4341 C.3     1  UNL1        0.0723
     23 C          66.0898   91.1458   14.8318 C.3     1  UNL1        0.0231
     24 C          66.3896   92.4062   15.5878 C.3     1  UNL1        0.0737
     25 C          67.2038   93.4902   14.9459 C.3     1  UNL1        0.3186
     26 F          68.6850   93.5510   15.1746 F       1  UNL1       -0.1984
     27 F          66.5367   94.5135   14.0753 F       1  UNL1       -0.1984
@<TRIPOS>BOND
     1     2     3    1
     2     3     4   ar
     3     4     5    1
     4     4     6   ar
     5     6     7   ar
     6     7     8   ar
     7     8     9   ar
     8     9     1    1
     9     1    15    1
    10    15    16    1
    11    16    17    1
    12    17    18    1
    13    18    19    1
    14    19    20    1
    15    20    22    1
    16    22    23    1
    17    23    24    1
    18    24    25    1
    19    25    26    1
    20    25    27    1
    21    20    21    1
    22     9    10   ar
    23    10    11   ar
    24    11    12   ar
    25    12    13   ar
    26    13    14    2
    27    13     3   ar
    28    11     6   ar
    29    21    16    1
@<TRIPOS>MOLECULE
*****
 27 29 0 0 0
SMALL
GASTEIGER

@<TRIPOS>ATOM
      1 O          60.7076   89.0479    9.4831 O.3     1  UNL1       -0.4753
      2 C          65.6172   92.0204   15.5503 C.3     1  UNL1        0.0375
      3 C          64.6181   91.3799   14.6328 C.ar    1  UNL1        0.0503
      4 C          64.7037   91.6098   13.1530 C.ar    1  UNL1       -0.0167
      5 C          65.7883   92.4801   12.5906 C.3     1  UNL1        0.0310
      6 C          63.7046   90.9693   12.2355 C.ar    1  UNL1        0.0308
      7 C          63.7902   91.1991   10.7557 C.ar    1  UNL1        0.0058
      8 C          62.7912   90.5587    9.8383 C.ar    1  UNL1        0.0371
      9 C          61.7066   89.6883   10.4006 C.ar    1  UNL1        0.1416
     10 C          61.6211   89.4585   11.8804 C.ar    1  UNL1        0.0744
     11 C          62.6201   90.0990   12.7978 C.ar    1  UNL1        0.1514
     12 O          62.5346   89.8691   14.2777 O.2     1  UNL1       -0.4212
     13 C          63.5336   90.5096   15.1951 C.ar    1  UNL1        0.3414
     14 O          63.4481   90.2797   16.6750 O.2     1  UNL1       -0.2448
     15 C          60.2756   87.6305    9.7166 C.3     1  UNL1        0.2067
     16 C          61.3030   86.5460    9.8524 C.3     1  UNL1        0.0597
     17 C          62.0455   86.0606    8.6428 C.3     1  UNL1        0.0065
     18 C          63.0728   84.9761    8.7786 C.3     1  UNL1        0.0175
     19 C          63.3577   84.3771   10.1240 C.3     1  UNL1        0.0721
     20 N          62.6152   84.8625   11.3336 N.3     1  UNL1       -0.2726
     21 C          61.5879   85.9470   11.1978 C.3     1  UNL1        0.0758
     22 C          62.9001   84.2635   12.6789 C.3     1  UNL1        0.0723
     23 C          64.3169   84.1116   13.1475 C.3     1  UNL1        0.0231
     24 C          64.7321   84.6728   14.4751 C.3     1  UNL1        0.0737
     25 C          64.2686   86.0377   14.8904 C.3     1  UNL1        0.3186
     26 F          63.8580   86.2903   16.3108 F       1  UNL1       -0.1984
     27 F          64.2158   87.1499   13.8853 F       1  UNL1       -0.1984
@<TRIPOS>BOND
     1     2     3    1
     2     3     4   ar
     3     4     5    1
     4     4     6   ar
     5     6     7   ar
     6     7     8   ar
     7     8     9   ar
     8     9     1    1
     9     1    15    1
    10    15    16    1
    11    16    17    1
    12    17    18    1
    13    18    19    1
    14    19    20    1
    15    20    22    1
    16    22    23    1
    17    23    24    1
    18    24    25    1
    19    25    26    1
    20    25    27    1
    21    20    21    1
    22     9    10   ar
    23    10    11   ar
    24    11    12   ar
    25    12    13   ar
    26    13    14    2
    27    13     3   ar
    28    11     6   ar
    29    21    16    1
@<TRIPOS>MOLECULE
*****
 27 29 0 0 0
SMALL
GASTEIGER

@<TRIPOS>ATOM
      1 O          61.9340   88.4110    9.4582 O.3     1  UNL1       -0.4753
      2 C          63.5333   81.1902   13.3379 C.3     1  UNL1        0.0375
      3 C          63.1920   82.5683   12.8538 C.ar    1  UNL1        0.0503
      4 C          63.2993   82.8986   11.3946 C.ar    1  UNL1       -0.0167
      5 C          63.7479   81.8508   10.4194 C.3     1  UNL1        0.0310
      6 C          62.9580   84.2767   10.9104 C.ar    1  UNL1        0.0308
      7 C          63.0652   84.6070    9.4512 C.ar    1  UNL1        0.0058
      8 C          62.7239   85.9851    8.9672 C.ar    1  UNL1        0.0371
      9 C          62.2753   87.0329    9.9423 C.ar    1  UNL1        0.1416
     10 C          62.1681   86.7026   11.4015 C.ar    1  UNL1        0.0744
     11 C          62.5094   85.3245   11.8856 C.ar    1  UNL1        0.1514
     12 O          62.4021   84.9942   13.3449 O.2     1  UNL1       -0.4212
     13 C          62.7434   83.6161   13.8289 C.ar    1  UNL1        0.3414
     14 O          62.6362   83.2857   15.2882 O.2     1  UNL1       -0.2448
     15 C          61.5644   89.4814   10.4419 C.3     1  UNL1        0.2067
     16 C          62.6336   90.1734   11.2344 C.3     1  UNL1        0.0597
     17 C          62.9158   89.7479   12.6447 C.3     1  UNL1        0.0065
     18 C          63.9850   90.4399   13.4371 C.3     1  UNL1        0.0175
     19 C          64.7719   91.5574   12.8192 C.3     1  UNL1        0.0721
     20 N          64.4896   91.9830   11.4088 N.3     1  UNL1       -0.2726
     21 C          63.4205   91.2909   10.6164 C.3     1  UNL1        0.0758
     22 C          65.2765   93.1005   10.7909 C.3     1  UNL1        0.0723
     23 C          66.7730   93.1102   10.8934 C.3     1  UNL1        0.0231
     24 C          67.5874   92.1588   10.0678 C.3     1  UNL1        0.0737
     25 C          68.4016   92.6719    8.9171 C.3     1  UNL1        0.3186
     26 F          67.8309   93.7121    7.9994 F       1  UNL1       -0.1984
     27 F          69.7865   92.1447    8.6842 F       1  UNL1       -0.1984
@<TRIPOS>BOND
     1     2     3    1
     2     3     4   ar
     3     4     5    1
     4     4     6   ar
     5     6     7   ar
     6     7     8   ar
     7     8     9   ar
     8     9     1    1
     9     1    15    1
    10    15    16    1
    11    16    17    1
    12    17    18    1
    13    18    19    1
    14    19    20    1
    15    20    22    1
    16    22    23    1
    17    23    24    1
    18    24    25    1
    19    25    26    1
    20    25    27    1
    21    20    21    1
    22     9    10   ar
    23    10    11   ar
    24    11    12   ar
    25    12    13   ar
    26    13    14    2
    27    13     3   ar
    28    11     6   ar
    29    21    16    1
@<TRIPOS>MOLECULE
*****
 27 29 0 0 0
SMALL
GASTEIGER

@<TRIPOS>ATOM
      1 O          60.3985   88.4082   11.3148 O.3     1  UNL1       -0.4753
      2 C          66.8506   93.3902   13.1313 C.3     1  UNL1        0.0375
      3 C          65.6976   92.4359   13.0313 C.ar    1  UNL1        0.0503
      4 C          65.0104   92.2253   11.7148 C.ar    1  UNL1       -0.0167
      5 C          65.4761   92.9690   10.4982 C.3     1  UNL1        0.0310
      6 C          63.8574   91.2710   11.6147 C.ar    1  UNL1        0.0308
      7 C          63.1702   91.0604   10.2982 C.ar    1  UNL1        0.0058
      8 C          62.0172   90.1062   10.1982 C.ar    1  UNL1        0.0371
      9 C          61.5515   89.3625   11.4148 C.ar    1  UNL1        0.1416
     10 C          62.2387   89.5731   12.7313 C.ar    1  UNL1        0.0744
     11 C          63.3916   90.5274   12.8313 C.ar    1  UNL1        0.1514
     12 O          64.0789   90.7380   14.1479 O.2     1  UNL1       -0.4212
     13 C          65.2319   91.6923   14.2479 C.ar    1  UNL1        0.3414
     14 O          65.9192   91.9029   15.5645 O.2     1  UNL1       -0.2448
     15 C          60.3167   87.4486   10.1648 C.3     1  UNL1        0.2067
     16 C          61.3558   86.3784   10.0057 C.3     1  UNL1        0.0597
     17 C          62.1146   86.2554    8.7176 C.3     1  UNL1        0.0065
     18 C          63.1535   85.1853    8.5585 C.3     1  UNL1        0.0175
     19 C          63.4337   84.2382    9.6874 C.3     1  UNL1        0.0721
     20 N          62.6750   84.3612   10.9755 N.3     1  UNL1       -0.2726
     21 C          61.6360   85.4313   11.1346 C.3     1  UNL1        0.0758
     22 C          62.9552   83.4141   12.1044 C.3     1  UNL1        0.0723
     23 C          63.0541   81.9409   11.8404 C.3     1  UNL1        0.0231
     24 C          62.5862   80.9605   12.8748 C.3     1  UNL1        0.0737
     25 C          61.6692   81.4099   13.9736 C.3     1  UNL1        0.3186
     26 F          60.2822   80.8471   14.0700 F       1  UNL1       -0.1984
     27 F          62.1393   82.4220   14.9758 F       1  UNL1       -0.1984
@<TRIPOS>BOND
     1     2     3    1
     2     3     4   ar
     3     4     5    1
     4     4     6   ar
     5     6     7   ar
     6     7     8   ar
     7     8     9   ar
     8     9     1    1
     9     1    15    1
    10    15    16    1
    11    16    17    1
    12    17    18    1
    13    18    19    1
    14    19    20    1
    15    20    22    1
    16    22    23    1
    17    23    24    1
    18    24    25    1
    19    25    26    1
    20    25    27    1
    21    20    21    1
    22     9    10   ar
    23    10    11   ar
    24    11    12   ar
    25    12    13   ar
    26    13    14    2
    27    13     3   ar
    28    11     6   ar
    29    21    16    1
@<TRIPOS>MOLECULE
*****
 27 29 0 0 0
SMALL
GASTEIGER

@<TRIPOS>ATOM
      1 O          61.2647   87.5087   11.4025 O.3     1  UNL1       -0.4753
      2 C          66.5888   93.7183   13.0895 C.3     1  UNL1        0.0375
      3 C          65.6751   92.5316   13.0052 C.ar    1  UNL1        0.0503
      4 C          64.9193   92.2554   11.7394 C.ar    1  UNL1       -0.0167
      5 C          65.0771   93.1658   10.5578 C.3     1  UNL1        0.0310
      6 C          64.0056   91.0687   11.6551 C.ar    1  UNL1        0.0308
      7 C          63.2498   90.7924   10.3893 C.ar    1  UNL1        0.0058
      8 C          62.3361   89.6058   10.3051 C.ar    1  UNL1        0.0371
      9 C          62.1783   88.6954   11.4868 C.ar    1  UNL1        0.1416
     10 C          62.9342   88.9716   12.7526 C.ar    1  UNL1        0.0744
     11 C          63.8478   90.1583   12.8368 C.ar    1  UNL1        0.1514
     12 O          64.6037   90.4346   14.1027 O.2     1  UNL1       -0.4212
     13 C          65.5173   91.6212   14.1869 C.ar    1  UNL1        0.3414
     14 O          66.2732   91.8975   15.4527 O.2     1  UNL1       -0.2448
     15 C          61.5858   86.3797   10.4686 C.3     1  UNL1        0.2067
     16 C          62.5322   85.2977   10.8974 C.3     1  UNL1        0.0597
     17 C          63.1145   84.3635    9.8785 C.3     1  UNL1        0.0065
     18 C          64.0608   83.2816   10.3073 C.3     1  UNL1        0.0175
     19 C          64.4249   83.1340   11.7549 C.3     1  UNL1        0.0721
     20 N          63.8426   84.0682   12.7738 N.3     1  UNL1       -0.2726
     21 C          62.8963   85.1501   12.3450 C.3     1  UNL1        0.0758
     22 C          64.2067   83.9206   14.2214 C.3     1  UNL1        0.0723
     23 C          63.1470   83.5956   15.2320 C.3     1  UNL1        0.0231
     24 C          62.4305   84.7010   15.9494 C.3     1  UNL1        0.0737
     25 C          63.2059   85.8525   16.5176 C.3     1  UNL1        0.3186
     26 F          64.0560   86.7007   15.6187 F       1  UNL1       -0.1984
     27 F          63.1313   86.1558   17.9847 F       1  UNL1       -0.1984
@<TRIPOS>BOND
     1     2     3    1
     2     3     4   ar
     3     4     5    1
     4     4     6   ar
     5     6     7   ar
     6     7     8   ar
     7     8     9   ar
     8     9     1    1
     9     1    15    1
    10    15    16    1
    11    16    17    1
    12    17    18    1
    13    18    19    1
    14    19    20    1
    15    20    22    1
    16    22    23    1
    17    23    24    1
    18    24    25    1
    19    25    26    1
    20    25    27    1
    21    20    21    1
    22     9    10   ar
    23    10    11   ar
    24    11    12   ar
    25    12    13   ar
    26    13    14    2
    27    13     3   ar
    28    11     6   ar
    29    21    16    1
@<TRIPOS>MOLECULE
*****
 27 29 0 0 0
SMALL
GASTEIGER

@<TRIPOS>ATOM
      1 O          64.5594   83.7306   13.9681 O.3     1  UNL1       -0.4753
      2 C          60.2746   86.9090    7.5425 C.3     1  UNL1        0.0375
      3 C          60.9095   86.4749    8.8303 C.ar    1  UNL1        0.0503
      4 C          62.0200   85.4667    8.8167 C.ar    1  UNL1       -0.0167
      5 C          62.4956   84.8924    7.5151 C.3     1  UNL1        0.0310
      6 C          62.6549   85.0326   10.1046 C.ar    1  UNL1        0.0308
      7 C          63.7653   84.0244   10.0909 C.ar    1  UNL1        0.0058
      8 C          64.4001   83.5904   11.3787 C.ar    1  UNL1        0.0371
      9 C          63.9245   84.1646   12.6803 C.ar    1  UNL1        0.1416
     10 C          62.8140   85.1729   12.6939 C.ar    1  UNL1        0.0744
     11 C          62.1792   85.6069   11.4061 C.ar    1  UNL1        0.1514
     12 O          61.0687   86.6152   11.4197 O.2     1  UNL1       -0.4212
     13 C          60.4339   87.0492   10.1319 C.ar    1  UNL1        0.3414
     14 O          59.3233   88.0575   10.1455 O.2     1  UNL1       -0.2448
     15 C          63.8556   83.9731   15.2704 C.3     1  UNL1        0.2067
     16 C          63.6349   85.3758   15.7538 C.3     1  UNL1        0.0597
     17 C          62.8622   85.6213   17.0158 C.3     1  UNL1        0.0065
     18 C          62.6415   87.0240   17.4992 C.3     1  UNL1        0.0175
     19 C          63.1934   88.1812   16.7205 C.3     1  UNL1        0.0721
     20 N          63.9661   87.9357   15.4586 N.3     1  UNL1       -0.2726
     21 C          64.1868   86.5330   14.9752 C.3     1  UNL1        0.0758
     22 C          64.5181   89.0929   14.6800 C.3     1  UNL1        0.0723
     23 C          63.6763   89.7637   13.6353 C.3     1  UNL1        0.0231
     24 C          63.3007   89.0236   12.3858 C.3     1  UNL1        0.0737
     25 C          62.7298   89.7687   11.2158 C.3     1  UNL1        0.3186
     26 F          62.8040   89.1753    9.8402 F       1  UNL1       -0.1984
     27 F          62.0847   91.1072   11.4213 F       1  UNL1       -0.1984
@<TRIPOS>BOND
     1     2     3    1
     2     3     4   ar
     3     4     5    1
     4     4     6   ar
     5     6     7   ar
     6     7     8   ar
     7     8     9   ar
     8     9     1    1
     9     1    15    1
    10    15    16    1
    11    16    17    1
    12    17    18    1
    13    18    19    1
    14    19    20    1
    15    20    22    1
    16    22    23    1
    17    23    24    1
    18    24    25    1
    19    25    26    1
    20    25    27    1
    21    20    21    1
    22     9    10   ar
    23    10    11   ar
    24    11    12   ar
    25    12    13   ar
    26    13    14    2
    27    13     3   ar
    28    11     6   ar
    29    21    16    1
