@<TRIPOS>MOLECULE
*****
 40 44 0 0 0
SMALL
GASTEIGER

@<TRIPOS>ATOM
      1 C          63.6802   84.8729   15.2933 C.ar    1  UNL1        0.0056
      2 C          64.1595   85.5496   14.0434 C.ar    1  UNL1       -0.0018
      3 C          64.3002   87.0425   14.0055 C.ar    1  UNL1        0.0029
      4 C          63.9615   87.8587   15.2176 C.ar    1  UNL1        0.0391
      5 C          63.4822   87.1820   16.4675 C.ar    1  UNL1        0.0029
      6 C          63.3415   85.6891   16.5054 C.ar    1  UNL1       -0.0018
      7 C          64.1022   89.3516   15.1797 C.ar    1  UNL1        0.2037
      8 N          63.4395   90.3235   16.1105 N.ar    1  UNL1       -0.0555
      9 O          63.8579   91.7073   15.7105 O.2     1  UNL1       -0.3291
     10 C          64.7792   91.5906   14.5325 C.ar    1  UNL1        0.2973
     11 N          64.9302   90.1347   14.2045 N.ar    1  UNL1       -0.1843
     12 C          65.4346   92.7299   13.8095 C.ar    1  UNL1        0.2363
     13 O          66.2162   93.8427   14.4423 O.2     1  UNL1       -0.3486
     14 N          66.6880   94.7569   13.3507 N.ar    1  UNL1       -0.0768
     15 C          66.1979   94.2090   12.0431 C.ar    1  UNL1        0.1270
     16 C          65.4233   92.9562   12.3268 C.ar    1  UNL1        0.1340
     17 C          66.4401   94.8086   10.6898 C.ar    1  UNL1        0.0209
     18 C          65.6843   96.0331   10.2659 C.ar    1  UNL1        0.0016
     19 C          65.9265   96.6328    8.9124 C.ar    1  UNL1        0.0000
     20 C          66.9242   96.0080    7.9829 C.ar    1  UNL1        0.0000
     21 C          67.6799   94.7835    8.4067 C.ar    1  UNL1        0.0000
     22 C          67.4378   94.1838    9.7601 C.ar    1  UNL1        0.0016
     23 C          64.7547   92.0831   11.3067 C.3     1  UNL1        0.4232
     24 F          64.0861   91.2099   10.2865 F       1  UNL1       -0.1657
     25 F          63.4304   92.3229   11.9693 F       1  UNL1       -0.1657
     26 F          66.0788   91.8433   10.6440 F       1  UNL1       -0.1657
     27 C          63.5395   83.3799   15.3312 C.3     1  UNL1        0.1486
     28 O          64.4823   82.5586   16.1598 O.3     1  UNL1       -0.3786
     29 H          65.1164   83.1435   16.6034 H       1  UNL1        0.2108
     30 C          62.4562   82.7084   14.5404 C.3     1  UNL1        0.1063
     31 C          63.5185   82.6009   10.7182 C.3     1  UNL1        0.0216
     32 C          63.3238   81.1458   10.4106 C.3     1  UNL1        0.0032
     33 C          62.8398   80.2115   11.4797 C.3     1  UNL1        0.0174
     34 C          62.5506   80.7323   12.8563 C.3     1  UNL1        0.0722
     35 N          62.7454   82.1875   13.1638 N.3     1  UNL1       -0.2704
     36 C          63.2293   83.1218   12.0947 C.3     1  UNL1        0.0725
     37 C          64.0025   83.5352    9.6491 C.3     1  UNL1        0.0431
     38 O          62.5620   85.6201   10.2222 O.co2   1  UNL1       -0.5492
     39 C          63.1398   84.6796    9.2064 C.2     1  UNL1        0.0504
     40 O          62.8549   84.8837    7.7479 O.co2   1  UNL1       -0.5492
@<TRIPOS>UNITY_ATOM_ATTR
38 1
charge -1
@<TRIPOS>BOND
     1    38    39   ar
     2    39    40   ar
     3    39    37    1
     4    31    37    1
     5    31    32    1
     6    32    33    1
     7    33    34    1
     8    34    35    1
     9    35    30    1
    10    30    27    1
    11    27    28    1
    12    27     1    1
    13     1     2   ar
    14     2     3   ar
    15     3     4   ar
    16     4     7    1
    17     7     8   ar
    18     8     9   ar
    19     9    10   ar
    20    10    12    1
    21    12    13   ar
    22    13    14   ar
    23    14    15   ar
    24    15    17    1
    25    17    18   ar
    26    18    19   ar
    27    19    20   ar
    28    20    21   ar
    29    21    22   ar
    30    15    16   ar
    31    16    23    1
    32    23    24    1
    33    23    25    1
    34    23    26    1
    35    10    11   ar
    36     4     5   ar
    37     5     6   ar
    38    35    36    1
    39    36    31    1
    40     6     1   ar
    41    11     7   ar
    42    16    12   ar
    43    22    17   ar
    44    28    29    1
@<TRIPOS>MOLECULE
*****
 40 44 0 0 0
SMALL
GASTEIGER

@<TRIPOS>ATOM
      1 C          59.9148   92.7405    3.3359 C.ar    1  UNL1        0.0056
      2 C          58.5558   92.5024    3.9243 C.ar    1  UNL1       -0.0018
      3 C          58.3682   91.4509    4.9773 C.ar    1  UNL1        0.0029
      4 C          59.5396   90.6374    5.4420 C.ar    1  UNL1        0.0391
      5 C          60.8987   90.8754    4.8536 C.ar    1  UNL1        0.0029
      6 C          61.0863   91.9270    3.8005 C.ar    1  UNL1       -0.0018
      7 C          59.3520   89.5857    6.4951 C.ar    1  UNL1        0.2037
      8 N          58.1145   88.7663    6.7121 N.ar    1  UNL1       -0.0555
      9 O          58.3665   87.8431    7.8672 O.2     1  UNL1       -0.3291
     10 C          59.7598   88.0919    8.3640 C.ar    1  UNL1        0.2973
     11 N          60.3689   89.1689    7.5160 N.ar    1  UNL1       -0.1843
     12 C          60.4270   87.3874    9.5079 C.ar    1  UNL1        0.2363
     13 O          60.2281   87.6867   10.9643 O.2     1  UNL1       -0.3486
     14 N          61.0883   86.7442   11.7528 N.ar    1  UNL1       -0.0768
     15 C          61.8189   85.8625   10.7838 C.ar    1  UNL1        0.1270
     16 C          61.4101   86.2601    9.3964 C.ar    1  UNL1        0.1340
     17 C          62.7879   84.7744   11.1397 C.ar    1  UNL1        0.0209
     18 C          63.2777   83.8306   10.0816 C.ar    1  UNL1        0.0016
     19 C          64.2468   82.7424   10.4376 C.ar    1  UNL1        0.0000
     20 C          64.7261   82.5980   11.8515 C.ar    1  UNL1        0.0000
     21 C          64.2364   83.5417   12.9096 C.ar    1  UNL1        0.0000
     22 C          63.2673   84.6299   12.5537 C.ar    1  UNL1        0.0016
     23 C          61.8987   85.6392    8.1214 C.3     1  UNL1        0.4232
     24 F          62.3873   85.0184    6.8462 F       1  UNL1       -0.1657
     25 F          63.2763   86.1676    8.3920 F       1  UNL1       -0.1657
     26 F          60.5212   85.1109    7.8507 F       1  UNL1       -0.1657
     27 C          60.1025   93.7921    2.2828 C.3     1  UNL1        0.1486
     28 O          60.3034   95.2244    2.6805 O.3     1  UNL1       -0.3786
     29 H          60.2853   95.2970    3.6477 H       1  UNL1        0.2108
     30 C          60.0892   93.4114    0.8320 C.3     1  UNL1        0.1063
     31 C          56.8630   93.0889   -1.4566 C.3     1  UNL1        0.0216
     32 C          56.5826   94.5317   -1.7563 C.3     1  UNL1        0.0032
     33 C          57.4712   95.6010   -1.1932 C.3     1  UNL1        0.0174
     34 C          58.6400   95.2276   -0.3305 C.3     1  UNL1        0.0722
     35 N          58.9203   93.7849   -0.0308 N.3     1  UNL1       -0.2704
     36 C          58.0318   92.7156   -0.5938 C.3     1  UNL1        0.0725
     37 C          55.9744   92.0196   -2.0196 C.3     1  UNL1        0.0431
     38 O          57.4999   91.8374   -4.1148 O.co2   1  UNL1       -0.5492
     39 C          56.3478   91.3308   -3.2987 C.2     1  UNL1        0.0504
     40 O          55.5690   90.1354   -3.7618 O.co2   1  UNL1       -0.5492
@<TRIPOS>UNITY_ATOM_ATTR
38 1
charge -1
@<TRIPOS>BOND
     1    38    39   ar
     2    39    40   ar
     3    39    37    1
     4    31    37    1
     5    31    32    1
     6    32    33    1
     7    33    34    1
     8    34    35    1
     9    35    30    1
    10    30    27    1
    11    27    28    1
    12    27     1    1
    13     1     2   ar
    14     2     3   ar
    15     3     4   ar
    16     4     7    1
    17     7     8   ar
    18     8     9   ar
    19     9    10   ar
    20    10    12    1
    21    12    13   ar
    22    13    14   ar
    23    14    15   ar
    24    15    17    1
    25    17    18   ar
    26    18    19   ar
    27    19    20   ar
    28    20    21   ar
    29    21    22   ar
    30    15    16   ar
    31    16    23    1
    32    23    24    1
    33    23    25    1
    34    23    26    1
    35    10    11   ar
    36     4     5   ar
    37     5     6   ar
    38    35    36    1
    39    36    31    1
    40     6     1   ar
    41    11     7   ar
    42    16    12   ar
    43    22    17   ar
    44    28    29    1
@<TRIPOS>MOLECULE
*****
 40 44 0 0 0
SMALL
GASTEIGER

@<TRIPOS>ATOM
      1 C          60.4906   87.6197    9.0732 C.ar    1  UNL1        0.0056
      2 C          59.7813   87.1414    7.8412 C.ar    1  UNL1       -0.0018
      3 C          59.4086   88.1165    6.7641 C.ar    1  UNL1        0.0029
      4 C          59.7451   89.5700    6.9191 C.ar    1  UNL1        0.0391
      5 C          60.4544   90.0484    8.1512 C.ar    1  UNL1        0.0029
      6 C          60.8272   89.0733    9.2282 C.ar    1  UNL1       -0.0018
      7 C          59.3723   90.5452    5.8420 C.ar    1  UNL1        0.2037
      8 N          57.9798   90.8631    5.3839 N.ar    1  UNL1       -0.0555
      9 O          58.0733   91.8880    4.2927 O.2     1  UNL1       -0.3291
     10 C          59.5238   92.2034    4.0762 C.ar    1  UNL1        0.2973
     11 N          60.3265   91.3735    5.0338 N.ar    1  UNL1       -0.1843
     12 C          60.0747   93.1777    3.0776 C.ar    1  UNL1        0.2363
     13 O          59.4651   94.4961    2.7033 O.2     1  UNL1       -0.3486
     14 N          60.3456   95.1379    1.6723 N.ar    1  UNL1       -0.0768
     15 C          61.4994   94.2161    1.4095 C.ar    1  UNL1        0.1270
     16 C          61.3319   93.0047    2.2780 C.ar    1  UNL1        0.1340
     17 C          62.6232   94.4626    0.4471 C.ar    1  UNL1        0.0209
     18 C          63.8345   95.2291    0.8890 C.ar    1  UNL1        0.0016
     19 C          64.9584   95.4756   -0.0734 C.ar    1  UNL1        0.0000
     20 C          64.8709   94.9556   -1.4776 C.ar    1  UNL1        0.0000
     21 C          63.6597   94.1890   -1.9195 C.ar    1  UNL1        0.0000
     22 C          62.5358   93.9425   -0.9571 C.ar    1  UNL1        0.0016
     23 C          62.2590   91.8270    2.3366 C.3     1  UNL1        0.4232
     24 F          63.1861   90.6492    2.3953 F       1  UNL1       -0.1657
     25 F          61.6485   91.2838    1.0786 F       1  UNL1       -0.1657
     26 F          62.8694   92.3701    3.5945 F       1  UNL1       -0.1657
     27 C          60.8634   86.6446   10.1504 C.3     1  UNL1        0.1486
     28 O          60.5201   86.9394   11.5805 O.3     1  UNL1       -0.3786
     29 H          60.0629   87.7932   11.6339 H       1  UNL1        0.2108
     30 C          61.5795   85.3747    9.7974 C.3     1  UNL1        0.1063
     31 C          63.5840   84.6476   13.1445 C.3     1  UNL1        0.0216
     32 C          64.5291   83.5784   12.6823 C.3     1  UNL1        0.0032
     33 C          64.4909   83.1079   11.2585 C.3     1  UNL1        0.0174
     34 C          63.5078   83.7067   10.2969 C.3     1  UNL1        0.0722
     35 N          62.5627   84.7759   10.7590 N.3     1  UNL1       -0.2704
     36 C          62.6008   85.2463   12.1829 C.3     1  UNL1        0.0725
     37 C          63.6221   85.1180   14.5683 C.3     1  UNL1        0.0431
     38 O          61.9319   85.3574   16.5269 O.co2   1  UNL1       -0.5492
     39 C          62.7202   84.4911   15.5897 C.2     1  UNL1        0.0504
     40 O          62.6063   82.9978   15.6741 O.co2   1  UNL1       -0.5492
@<TRIPOS>UNITY_ATOM_ATTR
38 1
charge -1
@<TRIPOS>BOND
     1    38    39   ar
     2    39    40   ar
     3    39    37    1
     4    31    37    1
     5    31    32    1
     6    32    33    1
     7    33    34    1
     8    34    35    1
     9    35    30    1
    10    30    27    1
    11    27    28    1
    12    27     1    1
    13     1     2   ar
    14     2     3   ar
    15     3     4   ar
    16     4     7    1
    17     7     8   ar
    18     8     9   ar
    19     9    10   ar
    20    10    12    1
    21    12    13   ar
    22    13    14   ar
    23    14    15   ar
    24    15    17    1
    25    17    18   ar
    26    18    19   ar
    27    19    20   ar
    28    20    21   ar
    29    21    22   ar
    30    15    16   ar
    31    16    23    1
    32    23    24    1
    33    23    25    1
    34    23    26    1
    35    10    11   ar
    36     4     5   ar
    37     5     6   ar
    38    35    36    1
    39    36    31    1
    40     6     1   ar
    41    11     7   ar
    42    16    12   ar
    43    22    17   ar
    44    28    29    1
@<TRIPOS>MOLECULE
*****
 40 44 0 0 0
SMALL
GASTEIGER

@<TRIPOS>ATOM
      1 C          60.1786   92.7836    3.3110 C.ar    1  UNL1        0.0056
      2 C          58.8068   92.5968    3.8881 C.ar    1  UNL1       -0.0018
      3 C          58.5687   91.5456    4.9312 C.ar    1  UNL1        0.0029
      4 C          59.7024   90.6810    5.3972 C.ar    1  UNL1        0.0391
      5 C          61.0743   90.8677    4.8201 C.ar    1  UNL1        0.0029
      6 C          61.3124   91.9190    3.7770 C.ar    1  UNL1       -0.0018
      7 C          59.4643   89.6297    6.4404 C.ar    1  UNL1        0.2037
      8 N          58.2042   88.8361    6.6208 N.ar    1  UNL1       -0.0555
      9 O          58.4055   87.9034    7.7781 O.2     1  UNL1       -0.3291
     10 C          59.7900   88.1205    8.3130 C.ar    1  UNL1        0.2973
     11 N          60.4444   89.1874    7.4862 N.ar    1  UNL1       -0.1843
     12 C          60.4111   87.3976    9.4713 C.ar    1  UNL1        0.2363
     13 O          60.1658   87.6836   10.9232 O.2     1  UNL1       -0.3486
     14 N          60.9897   86.7245   11.7302 N.ar    1  UNL1       -0.0768
     15 C          61.7442   85.8457   10.7771 C.ar    1  UNL1        0.1270
     16 C          61.3866   86.2617    9.3811 C.ar    1  UNL1        0.1340
     17 C          62.6901   84.7443   11.1540 C.ar    1  UNL1        0.0209
     18 C          63.2864   83.8710   10.0901 C.ar    1  UNL1        0.0016
     19 C          64.2324   82.7695   10.4671 C.ar    1  UNL1        0.0000
     20 C          64.5820   82.5415   11.9078 C.ar    1  UNL1        0.0000
     21 C          63.9858   83.4148   12.9716 C.ar    1  UNL1        0.0000
     22 C          63.0398   84.5162   12.5948 C.ar    1  UNL1        0.0016
     23 C          61.9123   85.6493    8.1167 C.3     1  UNL1        0.4232
     24 F          62.4380   85.0368    6.8523 F       1  UNL1       -0.1657
     25 F          60.5514   85.0916    7.8210 F       1  UNL1       -0.1657
     26 F          63.2730   86.2069    8.4124 F       1  UNL1       -0.1657
     27 C          60.4168   93.8349    2.2679 C.3     1  UNL1        0.1486
     28 O          60.0642   95.2652    2.5505 O.3     1  UNL1       -0.3786
     29 H          59.6965   95.3369    3.4452 H       1  UNL1        0.2108
     30 C          61.0074   93.4558    0.9422 C.3     1  UNL1        0.1063
     31 C          59.7656   93.6257   -2.8233 C.3     1  UNL1        0.0216
     32 C          58.3637   93.1110   -2.6830 C.3     1  UNL1        0.0032
     33 C          57.8430   92.7113   -1.3343 C.3     1  UNL1        0.0174
     34 C          58.7242   92.8262   -0.1259 C.3     1  UNL1        0.0722
     35 N          60.1261   93.3409   -0.2662 N.3     1  UNL1       -0.2704
     36 C          60.6468   93.7406   -1.6150 C.3     1  UNL1        0.0725
     37 C          60.2863   94.0254   -4.1721 C.3     1  UNL1        0.0431
     38 O          59.2139   94.2444   -6.5283 O.co2   1  UNL1       -0.5492
     39 C          59.3977   94.7598   -5.1316 C.2     1  UNL1        0.0504
     40 O          58.6927   96.0096   -4.6946 O.co2   1  UNL1       -0.5492
@<TRIPOS>UNITY_ATOM_ATTR
38 1
charge -1
@<TRIPOS>BOND
     1    38    39   ar
     2    39    40   ar
     3    39    37    1
     4    31    37    1
     5    31    32    1
     6    32    33    1
     7    33    34    1
     8    34    35    1
     9    35    30    1
    10    30    27    1
    11    27    28    1
    12    27     1    1
    13     1     2   ar
    14     2     3   ar
    15     3     4   ar
    16     4     7    1
    17     7     8   ar
    18     8     9   ar
    19     9    10   ar
    20    10    12    1
    21    12    13   ar
    22    13    14   ar
    23    14    15   ar
    24    15    17    1
    25    17    18   ar
    26    18    19   ar
    27    19    20   ar
    28    20    21   ar
    29    21    22   ar
    30    15    16   ar
    31    16    23    1
    32    23    24    1
    33    23    25    1
    34    23    26    1
    35    10    11   ar
    36     4     5   ar
    37     5     6   ar
    38    35    36    1
    39    36    31    1
    40     6     1   ar
    41    11     7   ar
    42    16    12   ar
    43    22    17   ar
    44    28    29    1
@<TRIPOS>MOLECULE
*****
 40 44 0 0 0
SMALL
GASTEIGER

@<TRIPOS>ATOM
      1 C          65.8811   92.5909   13.5061 C.ar    1  UNL1        0.0056
      2 C          65.0797   92.4857   12.2425 C.ar    1  UNL1       -0.0018
      3 C          64.2801   91.2480   11.9624 C.ar    1  UNL1        0.0029
      4 C          64.2818   90.1154   12.9459 C.ar    1  UNL1        0.0391
      5 C          65.0831   90.2206   14.2095 C.ar    1  UNL1        0.0029
      6 C          65.8827   91.4583   14.4896 C.ar    1  UNL1       -0.0018
      7 C          63.4821   88.8776   12.6657 C.ar    1  UNL1        0.2037
      8 N          62.2359   88.8024   11.8341 N.ar    1  UNL1       -0.0555
      9 O          61.7718   87.3761   11.8224 O.2     1  UNL1       -0.3291
     10 C          62.7311   86.5698   12.6468 C.ar    1  UNL1        0.2973
     11 N          63.7880   87.4977   13.1680 N.ar    1  UNL1       -0.1843
     12 C          62.6479   85.0944   12.9047 C.ar    1  UNL1        0.2363
     13 O          62.4011   84.4442   14.2337 O.2     1  UNL1       -0.3486
     14 N          62.3977   82.9583   14.0293 N.ar    1  UNL1       -0.0768
     15 C          62.6423   82.6900   12.5738 C.ar    1  UNL1        0.1270
     16 C          62.7970   84.0103   11.8789 C.ar    1  UNL1        0.1340
     17 C          62.7189   81.3389   11.9271 C.ar    1  UNL1        0.0209
     18 C          63.0635   81.2224   10.4718 C.ar    1  UNL1        0.0016
     19 C          63.1400   79.8711    9.8250 C.ar    1  UNL1        0.0000
     20 C          62.8720   78.6365   10.6335 C.ar    1  UNL1        0.0000
     21 C          62.5275   78.7529   12.0887 C.ar    1  UNL1        0.0000
     22 C          62.4509   80.1041   12.7355 C.ar    1  UNL1        0.0016
     23 C          63.0554   84.2111   10.4150 C.3     1  UNL1        0.4232
     24 F          63.3139   84.4119    8.9511 F       1  UNL1       -0.1657
     25 F          61.6479   84.6968   10.2332 F       1  UNL1       -0.1657
     26 F          64.4629   83.7254   10.5968 F       1  UNL1       -0.1657
     27 C          66.6808   93.8287   13.7862 C.3     1  UNL1        0.1486
     28 O          67.9398   93.7407   14.5969 O.3     1  UNL1       -0.3786
     29 H          68.0913   92.8193   14.8598 H       1  UNL1        0.2108
     30 C          66.2215   95.1544   13.2557 C.3     1  UNL1        0.1063
     31 C          67.2084   94.8671    9.4225 C.3     1  UNL1        0.0216
     32 C          66.4180   96.0013    8.8405 C.3     1  UNL1        0.0032
     33 C          65.5620   96.8532    9.7302 C.3     1  UNL1        0.0174
     34 C          65.4965   96.5709   11.2019 C.3     1  UNL1        0.0722
     35 N          66.2870   95.4367   11.7839 N.3     1  UNL1       -0.2704
     36 C          67.1429   94.5848   10.8942 C.3     1  UNL1        0.0725
     37 C          68.0644   94.0152    8.5328 C.3     1  UNL1        0.0431
     38 O          68.3992   92.3000   10.4553 O.co2   1  UNL1       -0.5492
     39 C          68.5416   92.6757    9.0101 C.2     1  UNL1        0.0504
     40 O          69.1613   91.7117    8.0422 O.co2   1  UNL1       -0.5492
@<TRIPOS>UNITY_ATOM_ATTR
38 1
charge -1
@<TRIPOS>BOND
     1    38    39   ar
     2    39    40   ar
     3    39    37    1
     4    31    37    1
     5    31    32    1
     6    32    33    1
     7    33    34    1
     8    34    35    1
     9    35    30    1
    10    30    27    1
    11    27    28    1
    12    27     1    1
    13     1     2   ar
    14     2     3   ar
    15     3     4   ar
    16     4     7    1
    17     7     8   ar
    18     8     9   ar
    19     9    10   ar
    20    10    12    1
    21    12    13   ar
    22    13    14   ar
    23    14    15   ar
    24    15    17    1
    25    17    18   ar
    26    18    19   ar
    27    19    20   ar
    28    20    21   ar
    29    21    22   ar
    30    15    16   ar
    31    16    23    1
    32    23    24    1
    33    23    25    1
    34    23    26    1
    35    10    11   ar
    36     4     5   ar
    37     5     6   ar
    38    35    36    1
    39    36    31    1
    40     6     1   ar
    41    11     7   ar
    42    16    12   ar
    43    22    17   ar
    44    28    29    1
@<TRIPOS>MOLECULE
*****
 40 44 0 0 0
SMALL
GASTEIGER

@<TRIPOS>ATOM
      1 C          60.3830   92.7327    3.1792 C.ar    1  UNL1        0.0056
      2 C          59.0016   92.5985    3.7482 C.ar    1  UNL1       -0.0018
      3 C          58.7265   91.5837    4.8179 C.ar    1  UNL1        0.0029
      4 C          59.8327   90.7030    5.3186 C.ar    1  UNL1        0.0391
      5 C          61.2141   90.8372    4.7496 C.ar    1  UNL1        0.0029
      6 C          61.4892   91.8520    3.6798 C.ar    1  UNL1       -0.0018
      7 C          59.5575   89.6882    6.3884 C.ar    1  UNL1        0.2037
      8 N          58.2561   88.9779    6.6161 N.ar    1  UNL1       -0.0555
      9 O          58.4296   88.0562    7.7867 O.2     1  UNL1       -0.3291
     10 C          59.8384   88.1968    8.2825 C.ar    1  UNL1        0.2973
     11 N          60.5354   89.2054    7.4183 N.ar    1  UNL1       -0.1843
     12 C          60.4438   87.4584    9.4394 C.ar    1  UNL1        0.2363
     13 O          60.1986   87.7419   10.8918 O.2     1  UNL1       -0.3486
     14 N          61.0039   86.7657   11.6970 N.ar    1  UNL1       -0.0768
     15 C          61.7468   85.8788   10.7422 C.ar    1  UNL1        0.1270
     16 C          61.4005   86.3069    9.3470 C.ar    1  UNL1        0.1340
     17 C          62.6731   84.7602   11.1170 C.ar    1  UNL1        0.0209
     18 C          63.1854   83.8252   10.0617 C.ar    1  UNL1        0.0016
     19 C          64.1118   82.7065   10.4365 C.ar    1  UNL1        0.0000
     20 C          64.5258   82.5228   11.8664 C.ar    1  UNL1        0.0000
     21 C          64.0136   83.4577   12.9217 C.ar    1  UNL1        0.0000
     22 C          63.0872   84.5764   12.5469 C.ar    1  UNL1        0.0016
     23 C          61.9199   85.6916    8.0815 C.3     1  UNL1        0.4232
     24 F          62.4394   85.0763    6.8159 F       1  UNL1       -0.1657
     25 F          60.5532   85.1497    7.7840 F       1  UNL1       -0.1657
     26 F          63.2866   86.2335    8.3789 F       1  UNL1       -0.1657
     27 C          60.6582   93.7475    2.1094 C.3     1  UNL1        0.1486
     28 O          59.5719   94.6813    1.6641 O.3     1  UNL1       -0.3786
     29 H          58.7617   94.4967    2.1645 H       1  UNL1        0.2108
     30 C          62.0195   93.8287    1.4849 C.3     1  UNL1        0.1063
     31 C          62.4231   94.3129   -2.4334 C.3     1  UNL1        0.0216
     32 C          62.5420   95.8055   -2.5238 C.3     1  UNL1        0.0032
     33 C          62.4867   96.6391   -1.2780 C.3     1  UNL1        0.0174
     34 C          62.3126   95.9802    0.0582 C.3     1  UNL1        0.0722
     35 N          62.1937   94.4876    0.1486 N.3     1  UNL1       -0.2704
     36 C          62.2490   93.6540   -1.0972 C.3     1  UNL1        0.0725
     37 C          62.4784   93.4793   -3.6792 C.3     1  UNL1        0.0431
     38 O          64.9203   94.2359   -4.1429 O.co2   1  UNL1       -0.5492
     39 C          63.7799   93.2965   -4.4021 C.2     1  UNL1        0.0504
     40 O          63.9411   92.1742   -5.3842 O.co2   1  UNL1       -0.5492
@<TRIPOS>UNITY_ATOM_ATTR
38 1
charge -1
@<TRIPOS>BOND
     1    38    39   ar
     2    39    40   ar
     3    39    37    1
     4    31    37    1
     5    31    32    1
     6    32    33    1
     7    33    34    1
     8    34    35    1
     9    35    30    1
    10    30    27    1
    11    27    28    1
    12    27     1    1
    13     1     2   ar
    14     2     3   ar
    15     3     4   ar
    16     4     7    1
    17     7     8   ar
    18     8     9   ar
    19     9    10   ar
    20    10    12    1
    21    12    13   ar
    22    13    14   ar
    23    14    15   ar
    24    15    17    1
    25    17    18   ar
    26    18    19   ar
    27    19    20   ar
    28    20    21   ar
    29    21    22   ar
    30    15    16   ar
    31    16    23    1
    32    23    24    1
    33    23    25    1
    34    23    26    1
    35    10    11   ar
    36     4     5   ar
    37     5     6   ar
    38    35    36    1
    39    36    31    1
    40     6     1   ar
    41    11     7   ar
    42    16    12   ar
    43    22    17   ar
    44    28    29    1
@<TRIPOS>MOLECULE
*****
 40 44 0 0 0
SMALL
GASTEIGER

@<TRIPOS>ATOM
      1 C          60.6015   87.4750    9.6318 C.ar    1  UNL1        0.0056
      2 C          59.9614   86.8977    8.4043 C.ar    1  UNL1       -0.0018
      3 C          59.5797   87.7953    7.2648 C.ar    1  UNL1        0.0029
      4 C          59.8383   89.2703    7.3528 C.ar    1  UNL1        0.0391
      5 C          60.4784   89.8476    8.5803 C.ar    1  UNL1        0.0029
      6 C          60.8601   88.9500    9.7198 C.ar    1  UNL1       -0.0018
      7 C          59.4566   90.1679    6.2132 C.ar    1  UNL1        0.2037
      8 N          58.0840   90.3116    5.6255 N.ar    1  UNL1       -0.0555
      9 O          58.1595   91.3118    4.5103 O.2     1  UNL1       -0.3291
     10 C          59.5789   91.7864    4.4087 C.ar    1  UNL1        0.2973
     11 N          60.3805   91.0794    5.4611 N.ar    1  UNL1       -0.1843
     12 C          60.1043   92.7915    3.4270 C.ar    1  UNL1        0.2363
     13 O          59.4796   94.1157    3.1012 O.2     1  UNL1       -0.3486
     14 N          60.3359   94.7914    2.0716 N.ar    1  UNL1       -0.0768
     15 C          61.4900   93.8849    1.7612 C.ar    1  UNL1        0.1270
     16 C          61.3468   92.6489    2.5989 C.ar    1  UNL1        0.1340
     17 C          62.5934   94.1652    0.7846 C.ar    1  UNL1        0.0209
     18 C          62.3502   94.0076   -0.6872 C.ar    1  UNL1        0.0016
     19 C          63.4537   94.2880   -1.6639 C.ar    1  UNL1        0.0000
     20 C          64.8001   94.7259   -1.1688 C.ar    1  UNL1        0.0000
     21 C          65.0433   94.8835    0.3029 C.ar    1  UNL1        0.0000
     22 C          63.9399   94.6032    1.2796 C.ar    1  UNL1        0.0016
     23 C          62.2820   91.4762    2.6070 C.3     1  UNL1        0.4232
     24 F          63.2173   90.3034    2.6152 F       1  UNL1       -0.1657
     25 F          61.8404   91.1143    1.2199 F       1  UNL1       -0.1657
     26 F          62.7237   91.8380    3.9941 F       1  UNL1       -0.1657
     27 C          60.9832   86.5774   10.7715 C.3     1  UNL1        0.1486
     28 O          60.3173   86.7355   12.1062 O.3     1  UNL1       -0.3786
     29 H          59.6706   87.4571   12.0614 H       1  UNL1        0.2108
     30 C          62.0308   85.5217   10.5763 C.3     1  UNL1        0.1063
     31 C          63.5855   82.9055   13.1235 C.3     1  UNL1        0.0216
     32 C          64.2062   83.8262   14.1319 C.3     1  UNL1        0.0032
     33 C          64.1018   85.3120   13.9552 C.3     1  UNL1        0.0174
     34 C          63.3767   85.8772   12.7700 C.3     1  UNL1        0.0722
     35 N          62.7560   84.9566   11.7616 N.3     1  UNL1       -0.2704
     36 C          62.8604   83.4707   11.9383 C.3     1  UNL1        0.0725
     37 C          63.6899   81.4196   13.3002 C.3     1  UNL1        0.0431
     38 O          61.2579   80.7113   13.8779 O.co2   1  UNL1       -0.5492
     39 C          62.4957   80.5483   13.0463 C.2     1  UNL1        0.0504
     40 O          62.5390   79.5141   11.9607 O.co2   1  UNL1       -0.5492
@<TRIPOS>UNITY_ATOM_ATTR
38 1
charge -1
@<TRIPOS>BOND
     1    38    39   ar
     2    39    40   ar
     3    39    37    1
     4    31    37    1
     5    31    32    1
     6    32    33    1
     7    33    34    1
     8    34    35    1
     9    35    30    1
    10    30    27    1
    11    27    28    1
    12    27     1    1
    13     1     2   ar
    14     2     3   ar
    15     3     4   ar
    16     4     7    1
    17     7     8   ar
    18     8     9   ar
    19     9    10   ar
    20    10    12    1
    21    12    13   ar
    22    13    14   ar
    23    14    15   ar
    24    15    17    1
    25    17    18   ar
    26    18    19   ar
    27    19    20   ar
    28    20    21   ar
    29    21    22   ar
    30    15    16   ar
    31    16    23    1
    32    23    24    1
    33    23    25    1
    34    23    26    1
    35    10    11   ar
    36     4     5   ar
    37     5     6   ar
    38    35    36    1
    39    36    31    1
    40     6     1   ar
    41    11     7   ar
    42    16    12   ar
    43    22    17   ar
    44    28    29    1
@<TRIPOS>MOLECULE
*****
 40 44 0 0 0
SMALL
GASTEIGER

@<TRIPOS>ATOM
      1 C          60.4493   88.1900    9.5927 C.ar    1  UNL1        0.0056
      2 C          59.6848   87.5558    8.4687 C.ar    1  UNL1       -0.0018
      3 C          59.3414   88.3581    7.2488 C.ar    1  UNL1        0.0029
      4 C          59.7624   89.7946    7.1527 C.ar    1  UNL1        0.0391
      5 C          60.5269   90.4288    8.2767 C.ar    1  UNL1        0.0029
      6 C          60.8704   89.6265    9.4966 C.ar    1  UNL1       -0.0018
      7 C          59.4190   90.5968    5.9327 C.ar    1  UNL1        0.2037
      8 N          58.0852   90.6318    5.2472 N.ar    1  UNL1       -0.0555
      9 O          58.1908   91.5616    4.0748 O.2     1  UNL1       -0.3291
     10 C          59.5899   92.1012    4.0358 C.ar    1  UNL1        0.2973
     11 N          60.3489   91.5049    5.1840 N.ar    1  UNL1       -0.1843
     12 C          60.1344   93.0674    3.0258 C.ar    1  UNL1        0.2363
     13 O          59.4999   94.3625    2.6133 O.2     1  UNL1       -0.3486
     14 N          60.3822   95.0036    1.5836 N.ar    1  UNL1       -0.0768
     15 C          61.5621   94.1048    1.3598 C.ar    1  UNL1        0.1270
     16 C          61.4089   92.9082    2.2511 C.ar    1  UNL1        0.1340
     17 C          62.6960   94.3583    0.4111 C.ar    1  UNL1        0.0209
     18 C          63.8164   95.2730    0.8089 C.ar    1  UNL1        0.0016
     19 C          64.9504   95.5265   -0.1398 C.ar    1  UNL1        0.0000
     20 C          64.9639   94.8652   -1.4861 C.ar    1  UNL1        0.0000
     21 C          63.8436   93.9506   -1.8838 C.ar    1  UNL1        0.0000
     22 C          62.7096   93.6971   -0.9352 C.ar    1  UNL1        0.0016
     23 C          62.3627   91.7549    2.3503 C.3     1  UNL1        0.4232
     24 F          63.3167   90.6014    2.4496 F       1  UNL1       -0.1657
     25 F          61.7647   91.1538    1.1129 F       1  UNL1       -0.1657
     26 F          62.9607   92.3559    3.5877 F       1  UNL1       -0.1657
     27 C          60.7928   87.3877   10.8127 C.3     1  UNL1        0.1486
     28 O          59.8330   87.3249   11.9637 O.3     1  UNL1       -0.3786
     29 H          59.0464   87.8540   11.7581 H       1  UNL1        0.2108
     30 C          62.0960   86.6483   10.8817 C.3     1  UNL1        0.1063
     31 C          64.1142   87.9878   14.0254 C.3     1  UNL1        0.0216
     32 C          64.5123   86.6971   14.6776 C.3     1  UNL1        0.0032
     33 C          64.1050   85.3901   14.0646 C.3     1  UNL1        0.0174
     34 C          63.2996   85.3738   12.7993 C.3     1  UNL1        0.0722
     35 N          62.9015   86.6645   12.1471 N.3     1  UNL1       -0.2704
     36 C          63.3088   87.9716   12.7601 C.3     1  UNL1        0.0725
     37 C          64.5215   89.2949   14.6384 C.3     1  UNL1        0.0431
     38 O          62.3609   89.3744   16.0791 O.co2   1  UNL1       -0.5492
     39 C          63.5444   90.0687   15.4729 C.2     1  UNL1        0.0504
     40 O          63.7507   91.5368   15.7012 O.co2   1  UNL1       -0.5492
@<TRIPOS>UNITY_ATOM_ATTR
38 1
charge -1
@<TRIPOS>BOND
     1    38    39   ar
     2    39    40   ar
     3    39    37    1
     4    31    37    1
     5    31    32    1
     6    32    33    1
     7    33    34    1
     8    34    35    1
     9    35    30    1
    10    30    27    1
    11    27    28    1
    12    27     1    1
    13     1     2   ar
    14     2     3   ar
    15     3     4   ar
    16     4     7    1
    17     7     8   ar
    18     8     9   ar
    19     9    10   ar
    20    10    12    1
    21    12    13   ar
    22    13    14   ar
    23    14    15   ar
    24    15    17    1
    25    17    18   ar
    26    18    19   ar
    27    19    20   ar
    28    20    21   ar
    29    21    22   ar
    30    15    16   ar
    31    16    23    1
    32    23    24    1
    33    23    25    1
    34    23    26    1
    35    10    11   ar
    36     4     5   ar
    37     5     6   ar
    38    35    36    1
    39    36    31    1
    40     6     1   ar
    41    11     7   ar
    42    16    12   ar
    43    22    17   ar
    44    28    29    1
