@<TRIPOS>MOLECULE
*****
 37 39 0 0 0
SMALL
GASTEIGER

@<TRIPOS>ATOM
      1 C          62.2424   86.5933   10.6288 C.3     1  UNL1        0.1812
      2 O          62.9958   86.5057   11.9229 O.3     1  UNL1       -0.3784
      3 H          63.5253   85.6931   11.9344 H       1  UNL1        0.2106
      4 C          61.4890   86.6809    9.3348 C.3     1  UNL1        0.4197
      5 F          60.7356   86.7685    8.0406 F       1  UNL1       -0.1676
      6 F          60.2503   87.0764   10.0826 F       1  UNL1       -0.1676
      7 F          62.7276   86.2854    8.5869 F       1  UNL1       -0.1676
      8 C          62.8446   85.2914   10.1900 C.3     1  UNL1        0.0399
      9 C          64.1868   83.6900   10.5559 C.3     1  UNL1        0.0045
     10 C          62.8700   84.1224   11.1296 C.3     1  UNL1        0.0227
     11 C          61.6910   84.6370   11.5389 C.3     1  UNL1        0.0045
     12 C          62.8955   82.9534   12.0691 C.ar    1  UNL1       -0.0041
     13 C          62.6297   81.5703   11.5527 C.ar    1  UNL1       -0.0030
     14 C          62.6551   80.4012   12.4922 C.ar    1  UNL1       -0.0002
     15 C          62.9463   80.6153   13.9481 C.ar    1  UNL1        0.0013
     16 C          63.2120   81.9983   14.4644 C.ar    1  UNL1        0.0196
     17 C          63.1866   83.1673   13.5249 C.ar    1  UNL1        0.1177
     18 S          63.4524   84.5504   14.0412 S.O2    1  UNL1        0.0568
     19 N          63.7181   85.9334   14.5576 N.3     1  UNL1       -0.2035
     20 O          62.1957   84.8148   14.4577 O.2     1  UNL1       -0.1532
     21 O          64.8917   84.4243   13.6384 O.2     1  UNL1       -0.1532
     22 H          62.8555   86.3278   14.9329 H       1  UNL1        0.1442
     23 H          64.0576   86.5212   13.7962 H       1  UNL1        0.1442
     24 C          61.6401   87.8951   11.0676 C.3     1  UNL1        0.0811
     25 C          62.5261   89.0668   11.3710 C.2     1  UNL1        0.0613
     26 C          62.9845   90.1035   10.3884 C.2     1  UNL1        0.0161
     27 C          63.8510   91.0850   11.1204 C.2     1  UNL1        0.0195
     28 C          64.5797   92.3147   10.6657 C.2     1  UNL1        0.0388
     29 C          65.3856   93.1145   11.6461 C.2     1  UNL1        0.1823
     30 N          65.4627   92.6845   13.0810 N.2     1  UNL1       -0.2468
     31 C          64.7340   91.4548   13.5358 C.3     1  UNL1        0.1722
     32 C          63.9281   90.6551   12.5555 C.2     1  UNL1        0.0833
     33 N          63.1093   89.4077   12.7103 N.2     1  UNL1       -0.2519
     34 S          66.1143   94.3442   11.1914 S.O2    1  UNL1        0.0265
     35 C          66.8430   95.5739   10.7367 C.3     1  UNL1        0.1834
     36 O          66.1123   93.8250    9.7841 O.2     1  UNL1       -0.1671
     37 O          66.1163   94.8634   12.5987 O.2     1  UNL1       -0.1671
@<TRIPOS>BOND
     1     9    10    1
     2    10    11    1
     3    10     8    1
     4     8     1    1
     5     1     2    1
     6     1    24    1
     7    24    25    1
     8    25    26    2
     9    26    27    1
    10    27    28    2
    11    28    29    1
    12    29    34    1
    13    34    35    1
    14    34    36    2
    15    34    37    2
    16    29    30    2
    17    30    31    1
    18    31    32    1
    19    32    33    2
    20     1     4    1
    21     4     5    1
    22     4     6    1
    23     4     7    1
    24    10    12    1
    25    12    13   ar
    26    13    14   ar
    27    14    15   ar
    28    15    16   ar
    29    16    17   ar
    30    17    18    1
    31    18    19    1
    32    18    20    2
    33    18    21    2
    34    33    25    1
    35    17    12   ar
    36    32    27    1
    37     2     3    1
    38    19    22    1
    39    19    23    1
@<TRIPOS>MOLECULE
*****
 37 39 0 0 0
SMALL
GASTEIGER

@<TRIPOS>ATOM
      1 C          62.2497   86.7003   10.6711 C.3     1  UNL1        0.1812
      2 O          63.0195   86.5446   11.9490 O.3     1  UNL1       -0.3784
      3 H          63.5147   85.7108   11.9287 H       1  UNL1        0.2106
      4 C          61.4799   86.8559    9.3931 C.3     1  UNL1        0.4197
      5 F          60.7101   87.0116    8.1152 F       1  UNL1       -0.1676
      6 F          62.6905   86.4366    8.6129 F       1  UNL1       -0.1676
      7 F          60.2694   87.2752   10.1734 F       1  UNL1       -0.1676
      8 C          62.7898   85.3876   10.1858 C.3     1  UNL1        0.0399
      9 C          64.1499   83.7931   10.5142 C.3     1  UNL1        0.0045
     10 C          62.8379   84.2082   11.1113 C.3     1  UNL1        0.0227
     11 C          61.6608   84.7084   11.5432 C.3     1  UNL1        0.0045
     12 C          62.8861   83.0288   12.0369 C.ar    1  UNL1       -0.0041
     13 C          62.6066   81.6516   11.5119 C.ar    1  UNL1       -0.0030
     14 C          62.6547   80.4722   12.4375 C.ar    1  UNL1       -0.0002
     15 C          62.9823   80.6699   13.8879 C.ar    1  UNL1        0.0013
     16 C          63.2617   82.0470   14.4128 C.ar    1  UNL1        0.0196
     17 C          63.2136   83.2264   13.4872 C.ar    1  UNL1        0.1177
     18 S          63.4930   84.6035   14.0122 S.O2    1  UNL1        0.0568
     19 N          63.7724   85.9806   14.5371 N.3     1  UNL1       -0.2035
     20 O          62.2414   84.8737   14.4399 O.2     1  UNL1       -0.1532
     21 O          64.9284   84.4703   13.5978 O.2     1  UNL1       -0.1532
     22 H          62.9154   86.3782   14.9217 H       1  UNL1        0.1442
     23 H          64.1105   86.5718   13.7777 H       1  UNL1        0.1442
     24 C          61.7096   88.0128   11.1563 C.3     1  UNL1        0.0811
     25 C          62.6513   89.1128   11.5474 C.2     1  UNL1        0.0613
     26 C          63.3716   89.2326   12.8577 C.2     1  UNL1        0.0161
     27 C          64.2036   90.4800   12.8170 C.2     1  UNL1        0.0195
     28 C          65.1223   91.1071   13.8235 C.2     1  UNL1        0.0388
     29 C          65.8349   92.3854   13.4944 C.2     1  UNL1        0.1823
     30 N          65.6289   93.0365   12.1590 N.2     1  UNL1       -0.2468
     31 C          64.7102   92.4095   11.1525 C.3     1  UNL1        0.1722
     32 C          63.9976   91.1313   11.4815 C.2     1  UNL1        0.0833
     33 N          63.0382   90.2862   10.6968 N.2     1  UNL1       -0.2519
     34 S          66.7535   93.0125   14.5009 S.O2    1  UNL1        0.0265
     35 C          67.6721   93.6395   15.5073 C.3     1  UNL1        0.1834
     36 O          67.1964   91.6500   14.9455 O.2     1  UNL1       -0.1671
     37 O          66.3106   94.3749   14.0563 O.2     1  UNL1       -0.1671
@<TRIPOS>BOND
     1     9    10    1
     2    10    11    1
     3    10     8    1
     4     8     1    1
     5     1     2    1
     6     1    24    1
     7    24    25    1
     8    25    26    2
     9    26    27    1
    10    27    28    2
    11    28    29    1
    12    29    34    1
    13    34    35    1
    14    34    36    2
    15    34    37    2
    16    29    30    2
    17    30    31    1
    18    31    32    1
    19    32    33    2
    20     1     4    1
    21     4     5    1
    22     4     6    1
    23     4     7    1
    24    10    12    1
    25    12    13   ar
    26    13    14   ar
    27    14    15   ar
    28    15    16   ar
    29    16    17   ar
    30    17    18    1
    31    18    19    1
    32    18    20    2
    33    18    21    2
    34    33    25    1
    35    17    12   ar
    36    32    27    1
    37     2     3    1
    38    19    22    1
    39    19    23    1
@<TRIPOS>MOLECULE
*****
 37 39 0 0 0
SMALL
GASTEIGER

@<TRIPOS>ATOM
      1 C          63.6797   86.8869   15.7897 C.3     1  UNL1        0.1812
      2 O          64.1558   87.0124   14.3729 O.3     1  UNL1       -0.3784
      3 H          64.6315   86.2061   14.1190 H       1  UNL1        0.2106
      4 C          63.2035   86.7614   17.2065 C.3     1  UNL1        0.4197
      5 F          62.7274   86.6359   18.6235 F       1  UNL1       -0.1676
      6 F          62.1303   87.7738   16.9356 F       1  UNL1       -0.1676
      7 F          64.2767   85.7491   17.4775 F       1  UNL1       -0.1676
      8 C          64.2916   85.5200   15.8743 C.3     1  UNL1        0.0399
      9 C          62.5075   84.3936   15.6546 C.3     1  UNL1        0.0045
     10 C          63.8305   84.4333   14.9488 C.3     1  UNL1        0.0227
     11 C          65.0629   84.5881   14.4199 C.3     1  UNL1        0.0045
     12 C          63.3695   83.3466   14.0233 C.ar    1  UNL1       -0.0041
     13 C          63.4507   81.9115   14.4523 C.ar    1  UNL1       -0.0030
     14 C          62.9897   80.8248   13.5268 C.ar    1  UNL1       -0.0002
     15 C          62.4473   81.1733   12.1723 C.ar    1  UNL1        0.0013
     16 C          62.3660   82.6083   11.7434 C.ar    1  UNL1        0.0196
     17 C          62.8271   83.6950   12.6689 C.ar    1  UNL1        0.1177
     18 S          62.7458   85.1301   12.2400 S.O2    1  UNL1        0.0568
     19 N          62.6645   86.5651   11.8110 N.3     1  UNL1       -0.2035
     20 O          61.8045   85.5142   13.1281 O.2     1  UNL1       -0.1532
     21 O          63.7896   84.8763   11.1930 O.2     1  UNL1       -0.1532
     22 H          61.9769   87.0531   12.3850 H       1  UNL1        0.1442
     23 H          62.3843   86.6118   10.8314 H       1  UNL1        0.1442
     24 C          63.0678   88.2538   15.7051 C.3     1  UNL1        0.0811
     25 C          63.4755   89.1914   14.6076 C.2     1  UNL1        0.0613
     26 C          64.6094   90.1719   14.6613 C.2     1  UNL1        0.0161
     27 C          64.6556   90.8996   13.3505 C.2     1  UNL1        0.0195
     28 C          65.5613   91.9769   12.8319 C.2     1  UNL1        0.0388
     29 C          65.3616   92.5235   11.4493 C.2     1  UNL1        0.1823
     30 N          64.2563   91.9928   10.5854 N.2     1  UNL1       -0.2468
     31 C          63.3505   90.9155   11.1040 C.3     1  UNL1        0.1722
     32 C          63.5501   90.3689   12.4865 C.2     1  UNL1        0.0833
     33 N          62.8208   89.3131   13.2635 N.2     1  UNL1       -0.2519
     34 S          66.2674   93.6009   10.9307 S.O2    1  UNL1        0.0265
     35 C          67.1732   94.6782   10.4121 C.3     1  UNL1        0.1834
     36 O          65.0738   94.3781   10.4604 O.2     1  UNL1       -0.1671
     37 O          67.4611   92.8237   11.4010 O.2     1  UNL1       -0.1671
@<TRIPOS>BOND
     1     9    10    1
     2    10    11    1
     3    10     8    1
     4     8     1    1
     5     1     2    1
     6     1    24    1
     7    24    25    1
     8    25    26    2
     9    26    27    1
    10    27    28    2
    11    28    29    1
    12    29    34    1
    13    34    35    1
    14    34    36    2
    15    34    37    2
    16    29    30    2
    17    30    31    1
    18    31    32    1
    19    32    33    2
    20     1     4    1
    21     4     5    1
    22     4     6    1
    23     4     7    1
    24    10    12    1
    25    12    13   ar
    26    13    14   ar
    27    14    15   ar
    28    15    16   ar
    29    16    17   ar
    30    17    18    1
    31    18    19    1
    32    18    20    2
    33    18    21    2
    34    33    25    1
    35    17    12   ar
    36    32    27    1
    37     2     3    1
    38    19    22    1
    39    19    23    1
@<TRIPOS>MOLECULE
*****
 37 39 0 0 0
SMALL
GASTEIGER

@<TRIPOS>ATOM
      1 C          63.6907   86.8281   15.7181 C.3     1  UNL1        0.1812
      2 O          64.2596   87.1074   14.3587 O.3     1  UNL1       -0.3784
      3 H          64.4700   86.2694   13.9178 H       1  UNL1        0.2106
      4 C          63.1217   86.5487   17.0776 C.3     1  UNL1        0.4197
      5 F          62.5527   86.2693   18.4371 F       1  UNL1       -0.1676
      6 F          62.3424   87.8289   17.0146 F       1  UNL1       -0.1676
      7 F          63.9009   85.2685   17.1406 F       1  UNL1       -0.1676
      8 C          63.8346   85.3547   15.4757 C.3     1  UNL1        0.0399
      9 C          62.1530   85.1009   14.2077 C.3     1  UNL1        0.0045
     10 C          63.6178   84.7963   14.1005 C.3     1  UNL1        0.0227
     11 C          64.9501   84.5855   14.1556 C.3     1  UNL1        0.0045
     12 C          63.4011   84.2379   12.7253 C.ar    1  UNL1       -0.0041
     13 C          63.4113   85.1507   11.5349 C.ar    1  UNL1       -0.0030
     14 C          63.1945   84.5922   10.1597 C.ar    1  UNL1       -0.0002
     15 C          62.9676   83.1210    9.9749 C.ar    1  UNL1        0.0013
     16 C          62.9574   82.2083   11.1652 C.ar    1  UNL1        0.0196
     17 C          63.1742   82.7667   12.5404 C.ar    1  UNL1        0.1177
     18 S          63.1640   81.8540   13.7307 S.O2    1  UNL1        0.0568
     19 N          63.1538   80.9412   14.9209 N.3     1  UNL1       -0.2035
     20 O          61.9070   82.1296   14.1386 O.2     1  UNL1       -0.1532
     21 O          64.5699   81.4333   13.4202 O.2     1  UNL1       -0.1532
     22 H          62.2501   81.0040   15.3898 H       1  UNL1        0.1442
     23 H          63.8924   81.2178   15.5678 H       1  UNL1        0.1442
     24 C          63.5467   88.3013   15.9606 C.3     1  UNL1        0.0811
     25 C          63.8477   89.2753   14.8604 C.2     1  UNL1        0.0613
     26 C          64.8773   90.3653   14.9050 C.2     1  UNL1        0.0161
     27 C          64.8379   91.0941   13.5945 C.2     1  UNL1        0.0195
     28 C          65.6255   92.2575   13.0690 C.2     1  UNL1        0.0388
     29 C          65.3592   92.7813   11.6888 C.2     1  UNL1        0.1823
     30 N          64.3052   92.1419   10.8344 N.2     1  UNL1       -0.2468
     31 C          63.5175   90.9785   11.3600 C.3     1  UNL1        0.1722
     32 C          63.7838   90.4547   12.7400 C.2     1  UNL1        0.0833
     33 N          63.1719   89.3306   13.5224 N.2     1  UNL1       -0.2519
     34 S          66.1468   93.9447   11.1632 S.O2    1  UNL1        0.0265
     35 C          66.9345   95.1080   10.6376 C.3     1  UNL1        0.1834
     36 O          66.2035   93.2958    9.8120 O.2     1  UNL1       -0.1671
     37 O          66.0901   94.5935   12.5144 O.2     1  UNL1       -0.1671
@<TRIPOS>BOND
     1     9    10    1
     2    10    11    1
     3    10     8    1
     4     8     1    1
     5     1     2    1
     6     1    24    1
     7    24    25    1
     8    25    26    2
     9    26    27    1
    10    27    28    2
    11    28    29    1
    12    29    34    1
    13    34    35    1
    14    34    36    2
    15    34    37    2
    16    29    30    2
    17    30    31    1
    18    31    32    1
    19    32    33    2
    20     1     4    1
    21     4     5    1
    22     4     6    1
    23     4     7    1
    24    10    12    1
    25    12    13   ar
    26    13    14   ar
    27    14    15   ar
    28    15    16   ar
    29    16    17   ar
    30    17    18    1
    31    18    19    1
    32    18    20    2
    33    18    21    2
    34    33    25    1
    35    17    12   ar
    36    32    27    1
    37     2     3    1
    38    19    22    1
    39    19    23    1
@<TRIPOS>MOLECULE
*****
 37 39 0 0 0
SMALL
GASTEIGER

@<TRIPOS>ATOM
      1 C          61.4871   88.9607   10.9588 C.3     1  UNL1        0.1812
      2 O          62.7547   88.3626   10.4245 O.3     1  UNL1       -0.3784
      3 H          62.7530   87.4058   10.5837 H       1  UNL1        0.2106
      4 C          60.2195   89.5587   11.4930 C.3     1  UNL1        0.4197
      5 F          58.9518   90.1568   12.0273 F       1  UNL1       -0.1676
      6 F          60.7953   89.5420   12.8781 F       1  UNL1       -0.1676
      7 F          59.6437   89.5754   10.1081 F       1  UNL1       -0.1676
      8 C          61.0360   87.6027   11.4087 C.3     1  UNL1        0.0399
      9 C          60.8844   85.8350   10.2458 C.3     1  UNL1        0.0045
     10 C          61.9115   86.4068   11.1775 C.3     1  UNL1        0.0227
     11 C          62.7330   87.0488   12.0351 C.3     1  UNL1        0.0045
     12 C          62.7870   85.2110   10.9463 C.ar    1  UNL1       -0.0041
     13 C          63.1418   84.8004    9.5478 C.ar    1  UNL1       -0.0030
     14 C          64.0173   83.6045    9.3165 C.ar    1  UNL1       -0.0002
     15 C          64.5380   82.8193   10.4838 C.ar    1  UNL1        0.0013
     16 C          64.1832   83.2299   11.8821 C.ar    1  UNL1        0.0196
     17 C          63.3077   84.4257   12.1134 C.ar    1  UNL1        0.1177
     18 S          62.9529   84.8363   13.5118 S.O2    1  UNL1        0.0568
     19 N          62.5981   85.2469   14.9102 N.3     1  UNL1       -0.2035
     20 O          61.6679   84.4233   13.4835 O.2     1  UNL1       -0.1532
     21 O          64.3478   85.3491   13.7152 O.2     1  UNL1       -0.1532
     22 H          61.6234   85.0112   15.0968 H       1  UNL1        0.1442
     23 H          62.7303   86.2530   15.0131 H       1  UNL1        0.1442
     24 C          61.9382   90.3186   10.5089 C.3     1  UNL1        0.0811
     25 C          63.1313   90.9631   11.1499 C.2     1  UNL1        0.0613
     26 C          63.6596   90.6713   12.5233 C.2     1  UNL1        0.0161
     27 C          64.8604   91.5404   12.7524 C.2     1  UNL1        0.0195
     28 C          65.7867   91.6840   13.9234 C.2     1  UNL1        0.0388
     29 C          66.9271   92.6567   13.8628 C.2     1  UNL1        0.1823
     30 N          67.1410   93.4857   12.6311 N.2     1  UNL1       -0.2468
     31 C          66.2147   93.3421   11.4601 C.3     1  UNL1        0.1722
     32 C          65.0745   92.3694   11.5207 C.2     1  UNL1        0.0833
     33 N          64.0058   92.0126   10.5303 N.2     1  UNL1       -0.2519
     34 S          67.8534   92.8004   15.0338 S.O2    1  UNL1        0.0265
     35 C          68.7797   92.9440   16.2048 C.3     1  UNL1        0.1834
     36 O          69.0318   92.6163   14.1242 O.2     1  UNL1       -0.1671
     37 O          66.6749   92.9845   15.9434 O.2     1  UNL1       -0.1671
@<TRIPOS>BOND
     1     9    10    1
     2    10    11    1
     3    10     8    1
     4     8     1    1
     5     1     2    1
     6     1    24    1
     7    24    25    1
     8    25    26    2
     9    26    27    1
    10    27    28    2
    11    28    29    1
    12    29    34    1
    13    34    35    1
    14    34    36    2
    15    34    37    2
    16    29    30    2
    17    30    31    1
    18    31    32    1
    19    32    33    2
    20     1     4    1
    21     4     5    1
    22     4     6    1
    23     4     7    1
    24    10    12    1
    25    12    13   ar
    26    13    14   ar
    27    14    15   ar
    28    15    16   ar
    29    16    17   ar
    30    17    18    1
    31    18    19    1
    32    18    20    2
    33    18    21    2
    34    33    25    1
    35    17    12   ar
    36    32    27    1
    37     2     3    1
    38    19    22    1
    39    19    23    1
@<TRIPOS>MOLECULE
*****
 37 39 0 0 0
SMALL
GASTEIGER

@<TRIPOS>ATOM
      1 C          61.5462   88.2837   10.8322 C.3     1  UNL1        0.1812
      2 O          62.5931   87.9762   11.8616 O.3     1  UNL1       -0.3784
      3 H          62.5023   87.0545   12.1497 H       1  UNL1        0.2106
      4 C          60.4994   88.5911    9.8029 C.3     1  UNL1        0.4197
      5 F          59.4524   88.8985    8.7736 F       1  UNL1       -0.1676
      6 F          61.5079   89.3674    9.0090 F       1  UNL1       -0.1676
      7 F          59.4908   87.8149   10.5968 F       1  UNL1       -0.1676
      8 C          61.0272   86.8805   10.9409 C.3     1  UNL1        0.0399
      9 C          62.6124   86.1723    9.7221 C.3     1  UNL1        0.0045
     10 C          61.9864   85.7294   11.0113 C.3     1  UNL1        0.0227
     11 C          61.3219   85.4601   12.1551 C.3     1  UNL1        0.0045
     12 C          62.9456   84.5783   11.0816 C.ar    1  UNL1       -0.0041
     13 C          63.2919   83.8136    9.8384 C.ar    1  UNL1       -0.0030
     14 C          64.2511   82.6625    9.9088 C.ar    1  UNL1       -0.0002
     15 C          64.8639   82.2761   11.2223 C.ar    1  UNL1        0.0013
     16 C          64.5176   83.0408   12.4653 C.ar    1  UNL1        0.0196
     17 C          63.5584   84.1918   12.3950 C.ar    1  UNL1        0.1177
     18 S          63.2120   84.9565   13.6382 S.O2    1  UNL1        0.0568
     19 N          62.8657   85.7212   14.8813 N.3     1  UNL1       -0.2035
     20 O          63.8671   86.0932   13.3200 O.2     1  UNL1       -0.1532
     21 O          62.4361   83.7780   14.1470 O.2     1  UNL1       -0.1532
     22 H          63.2846   86.6501   14.8368 H       1  UNL1        0.1442
     23 H          63.2247   85.2249   15.6968 H       1  UNL1        0.1442
     24 C          62.0652   89.6868   10.7235 C.3     1  UNL1        0.0811
     25 C          62.9141   90.2594   11.8195 C.2     1  UNL1        0.0613
     26 C          64.1849   91.0353   11.6366 C.2     1  UNL1        0.0161
     27 C          64.6976   91.4122   12.9949 C.2     1  UNL1        0.0195
     28 C          65.9097   92.1796   13.4328 C.2     1  UNL1        0.0388
     29 C          66.1681   92.4040   14.8933 C.2     1  UNL1        0.1823
     30 N          65.2143   91.8611   15.9158 N.2     1  UNL1       -0.2468
     31 C          64.0022   91.0936   15.4779 C.3     1  UNL1        0.1722
     32 C          63.7438   90.8692   14.0175 C.2     1  UNL1        0.0833
     33 N          62.6416   90.1567   13.2910 N.2     1  UNL1       -0.2519
     34 S          67.3802   93.1714   15.3313 S.O2    1  UNL1        0.0265
     35 C          68.5924   93.9389   15.7692 C.3     1  UNL1        0.1834
     36 O          66.9199   93.0853   16.7563 O.2     1  UNL1       -0.1671
     37 O          67.8406   93.2575   13.9063 O.2     1  UNL1       -0.1671
@<TRIPOS>BOND
     1     9    10    1
     2    10    11    1
     3    10     8    1
     4     8     1    1
     5     1     2    1
     6     1    24    1
     7    24    25    1
     8    25    26    2
     9    26    27    1
    10    27    28    2
    11    28    29    1
    12    29    34    1
    13    34    35    1
    14    34    36    2
    15    34    37    2
    16    29    30    2
    17    30    31    1
    18    31    32    1
    19    32    33    2
    20     1     4    1
    21     4     5    1
    22     4     6    1
    23     4     7    1
    24    10    12    1
    25    12    13   ar
    26    13    14   ar
    27    14    15   ar
    28    15    16   ar
    29    16    17   ar
    30    17    18    1
    31    18    19    1
    32    18    20    2
    33    18    21    2
    34    33    25    1
    35    17    12   ar
    36    32    27    1
    37     2     3    1
    38    19    22    1
    39    19    23    1
@<TRIPOS>MOLECULE
*****
 37 39 0 0 0
SMALL
GASTEIGER

@<TRIPOS>ATOM
      1 C          63.2241   88.3598   12.9922 C.3     1  UNL1        0.1812
      2 O          62.3645   89.1071   12.0162 O.3     1  UNL1       -0.3784
      3 H          62.0854   88.5078   11.3063 H       1  UNL1        0.2106
      4 C          64.0838   87.6126   13.9682 C.3     1  UNL1        0.4197
      5 F          64.9435   86.8654   14.9442 F       1  UNL1       -0.1676
      6 F          64.0331   88.7811   14.9075 F       1  UNL1       -0.1676
      7 F          64.1346   86.4442   13.0290 F       1  UNL1       -0.1676
      8 C          63.0704   87.1127   12.1729 C.3     1  UNL1        0.0399
      9 C          62.8512   88.1899   10.3586 C.3     1  UNL1        0.0045
     10 C          62.0981   87.0806   11.0311 C.3     1  UNL1        0.0227
     11 C          61.5321   86.0932   11.7572 C.3     1  UNL1        0.0045
     12 C          61.1258   87.0484    9.8894 C.ar    1  UNL1       -0.0041
     13 C          61.2614   86.0074    8.8179 C.ar    1  UNL1       -0.0030
     14 C          60.2891   85.9752    7.6762 C.ar    1  UNL1       -0.0002
     15 C          59.1812   86.9841    7.6059 C.ar    1  UNL1        0.0013
     16 C          59.0456   88.0250    8.6774 C.ar    1  UNL1        0.0196
     17 C          60.0180   88.0572    9.8191 C.ar    1  UNL1        0.1177
     18 S          59.8824   89.0982   10.8906 S.O2    1  UNL1        0.0568
     19 N          59.7468   90.1392   11.9620 N.3     1  UNL1       -0.2035
     20 O          59.4351   88.2758   11.8633 O.2     1  UNL1       -0.1532
     21 O          60.3664   90.1466    9.9332 O.2     1  UNL1       -0.1532
     22 H          59.4058   89.7029   12.8186 H       1  UNL1        0.1442
     23 H          59.0866   90.8551   11.6589 H       1  UNL1        0.1442
     24 C          63.3779   89.6069   13.8115 C.3     1  UNL1        0.0811
     25 C          64.1427   90.7749   13.2632 C.2     1  UNL1        0.0613
     26 C          64.2141   91.1837   11.8217 C.2     1  UNL1        0.0161
     27 C          65.0860   92.4007   11.7276 C.2     1  UNL1        0.0195
     28 C          65.5146   93.2406   10.5611 C.2     1  UNL1        0.0388
     29 C          66.4107   94.4239   10.7779 C.2     1  UNL1        0.1823
     30 N          66.8781   94.7672   12.1612 N.2     1  UNL1       -0.2468
     31 C          66.4494   93.9274   13.3278 C.3     1  UNL1        0.1722
     32 C          65.5534   92.7441   13.1110 C.2     1  UNL1        0.0833
     33 N          64.9704   91.7393   14.0600 N.2     1  UNL1       -0.2519
     34 S          66.8394   95.2638    9.6114 S.O2    1  UNL1        0.0265
     35 C          67.2681   96.1037    8.4448 C.3     1  UNL1        0.1834
     36 O          68.1156   94.4812    9.5169 O.2     1  UNL1       -0.1671
     37 O          65.5632   96.0463    9.7058 O.2     1  UNL1       -0.1671
@<TRIPOS>BOND
     1     9    10    1
     2    10    11    1
     3    10     8    1
     4     8     1    1
     5     1     2    1
     6     1    24    1
     7    24    25    1
     8    25    26    2
     9    26    27    1
    10    27    28    2
    11    28    29    1
    12    29    34    1
    13    34    35    1
    14    34    36    2
    15    34    37    2
    16    29    30    2
    17    30    31    1
    18    31    32    1
    19    32    33    2
    20     1     4    1
    21     4     5    1
    22     4     6    1
    23     4     7    1
    24    10    12    1
    25    12    13   ar
    26    13    14   ar
    27    14    15   ar
    28    15    16   ar
    29    16    17   ar
    30    17    18    1
    31    18    19    1
    32    18    20    2
    33    18    21    2
    34    33    25    1
    35    17    12   ar
    36    32    27    1
    37     2     3    1
    38    19    22    1
    39    19    23    1
@<TRIPOS>MOLECULE
*****
 37 39 0 0 0
SMALL
GASTEIGER

@<TRIPOS>ATOM
      1 C          61.2964   89.4910   11.2065 C.3     1  UNL1        0.1812
      2 O          62.7065   89.0783   10.9047 O.3     1  UNL1       -0.3784
      3 H          62.7547   88.1113   10.8451 H       1  UNL1        0.2106
      4 C          59.8862   89.9037   11.5082 C.3     1  UNL1        0.4197
      5 F          58.4760   90.3163   11.8100 F       1  UNL1       -0.1676
      6 F          60.0046   91.0286   10.5230 F       1  UNL1       -0.1676
      7 F          59.7678   88.7788   12.4933 F       1  UNL1       -0.1676
      8 C          60.8768   88.0508   11.2153 C.3     1  UNL1        0.0399
      9 C          61.2306   85.9744   10.9638 C.3     1  UNL1        0.0045
     10 C          61.2109   87.1651   10.0518 C.3     1  UNL1        0.0227
     11 C          61.1567   88.3259    9.3648 C.3     1  UNL1        0.0045
     12 C          61.5451   86.2794    8.8882 C.ar    1  UNL1       -0.0041
     13 C          62.7754   85.4221    8.9273 C.ar    1  UNL1       -0.0030
     14 C          63.1096   84.5364    7.7638 C.ar    1  UNL1       -0.0002
     15 C          62.2135   84.5080    6.5611 C.ar    1  UNL1        0.0013
     16 C          60.9833   85.3653    6.5221 C.ar    1  UNL1        0.0196
     17 C          60.6491   86.2510    7.6856 C.ar    1  UNL1        0.1177
     18 S          59.4188   87.1084    7.6465 S.O2    1  UNL1        0.0568
     19 N          58.1886   87.9657    7.6075 N.3     1  UNL1       -0.2035
     20 O          58.6005   86.2514    8.2935 O.2     1  UNL1       -0.1532
     21 O          60.1838   88.1729    6.9175 O.2     1  UNL1       -0.1532
     22 H          57.4193   87.4775    8.0660 H       1  UNL1        0.1442
     23 H          57.9390   88.1582    6.6374 H       1  UNL1        0.1442
     24 C          61.7159   90.9310   11.1976 C.3     1  UNL1        0.0811
     25 C          63.0730   91.3199   11.7046 C.2     1  UNL1        0.0613
     26 C          63.5567   91.1896   13.1186 C.2     1  UNL1        0.0161
     27 C          64.9673   91.6966   13.1745 C.2     1  UNL1        0.0195
     28 C          65.9485   91.8115   14.3033 C.2     1  UNL1        0.0388
     29 C          67.3179   92.3702   14.0527 C.2     1  UNL1        0.1823
     30 N          67.7060   92.8139   12.6734 N.2     1  UNL1       -0.2468
     31 C          66.7248   92.6989   11.5447 C.3     1  UNL1        0.1722
     32 C          65.3555   92.1403   11.7952 C.2     1  UNL1        0.0833
     33 N          64.1847   91.9075   10.8867 N.2     1  UNL1       -0.2519
     34 S          68.2990   92.4852   15.1814 S.O2    1  UNL1        0.0265
     35 C          69.2802   92.6001   16.3102 C.3     1  UNL1        0.1834
     36 O          67.1687   92.4552   16.1671 O.2     1  UNL1       -0.1671
     37 O          69.4294   92.5152   14.1958 O.2     1  UNL1       -0.1671
@<TRIPOS>BOND
     1     9    10    1
     2    10    11    1
     3    10     8    1
     4     8     1    1
     5     1     2    1
     6     1    24    1
     7    24    25    1
     8    25    26    2
     9    26    27    1
    10    27    28    2
    11    28    29    1
    12    29    34    1
    13    34    35    1
    14    34    36    2
    15    34    37    2
    16    29    30    2
    17    30    31    1
    18    31    32    1
    19    32    33    2
    20     1     4    1
    21     4     5    1
    22     4     6    1
    23     4     7    1
    24    10    12    1
    25    12    13   ar
    26    13    14   ar
    27    14    15   ar
    28    15    16   ar
    29    16    17   ar
    30    17    18    1
    31    18    19    1
    32    18    20    2
    33    18    21    2
    34    33    25    1
    35    17    12   ar
    36    32    27    1
    37     2     3    1
    38    19    22    1
    39    19    23    1
@<TRIPOS>MOLECULE
*****
 37 39 0 0 0
SMALL
GASTEIGER

@<TRIPOS>ATOM
      1 C          61.3550   89.1827   10.4858 C.3     1  UNL1        0.1812
      2 O          62.5436   88.4857    9.8931 O.3     1  UNL1       -0.3784
      3 H          62.4479   87.5275   10.0098 H       1  UNL1        0.2106
      4 C          60.1664   89.8798   11.0784 C.3     1  UNL1        0.4197
      5 F          58.9777   90.5769   11.6711 F       1  UNL1       -0.1676
      6 F          60.6310   89.5026   12.4539 F       1  UNL1       -0.1676
      7 F          59.7017   90.2569    9.7030 F       1  UNL1       -0.1676
      8 C          60.7777   87.8575   10.8867 C.3     1  UNL1        0.0399
      9 C          62.6438   87.4206   11.7960 C.3     1  UNL1        0.0045
     10 C          61.6612   86.6480   10.9668 C.3     1  UNL1        0.0227
     11 C          60.6865   86.0905   10.2174 C.3     1  UNL1        0.0045
     12 C          62.5447   85.4384   11.0469 C.ar    1  UNL1       -0.0041
     13 C          62.9698   84.9074   12.3838 C.ar    1  UNL1       -0.0030
     14 C          63.8533   83.6978   12.4638 C.ar    1  UNL1       -0.0002
     15 C          64.3116   83.0193   11.2070 C.ar    1  UNL1        0.0013
     16 C          63.8865   83.5503    9.8701 C.ar    1  UNL1        0.0196
     17 C          63.0030   84.7599    9.7901 C.ar    1  UNL1        0.1177
     18 S          62.5778   85.2909    8.4532 S.O2    1  UNL1        0.0568
     19 N          62.1526   85.8219    7.1163 N.3     1  UNL1       -0.2035
     20 O          61.5908   84.3978    8.2277 O.2     1  UNL1       -0.1532
     21 O          63.6304   86.3559    8.5414 O.2     1  UNL1       -0.1532
     22 H          61.3814   85.2595    6.7567 H       1  UNL1        0.1442
     23 H          62.9380   85.7767    6.4671 H       1  UNL1        0.1442
     24 C          61.9322   90.5079   10.0848 C.3     1  UNL1        0.0811
     25 C          63.1212   91.0595   10.8141 C.2     1  UNL1        0.0613
     26 C          63.5193   90.7355   12.2236 C.2     1  UNL1        0.0161
     27 C          64.7651   91.5077   12.5426 C.2     1  UNL1        0.0195
     28 C          65.6089   91.5848   13.7803 C.2     1  UNL1        0.0388
     29 C          66.8246   92.4632   13.8057 C.2     1  UNL1        0.1823
     30 N          67.1964   93.2645   12.5934 N.2     1  UNL1       -0.2468
     31 C          66.3526   93.1874   11.3557 C.3     1  UNL1        0.1722
     32 C          65.1370   92.3090   11.3303 C.2     1  UNL1        0.0833
     33 N          64.1209   92.0320   10.2620 N.2     1  UNL1       -0.2519
     34 S          67.6684   92.5403   15.0435 S.O2    1  UNL1        0.0265
     35 C          68.5123   92.6174   16.2812 C.3     1  UNL1        0.1834
     36 O          68.9074   92.5546   14.1980 O.2     1  UNL1       -0.1671
     37 O          66.4295   92.5260   15.8890 O.2     1  UNL1       -0.1671
@<TRIPOS>BOND
     1     9    10    1
     2    10    11    1
     3    10     8    1
     4     8     1    1
     5     1     2    1
     6     1    24    1
     7    24    25    1
     8    25    26    2
     9    26    27    1
    10    27    28    2
    11    28    29    1
    12    29    34    1
    13    34    35    1
    14    34    36    2
    15    34    37    2
    16    29    30    2
    17    30    31    1
    18    31    32    1
    19    32    33    2
    20     1     4    1
    21     4     5    1
    22     4     6    1
    23     4     7    1
    24    10    12    1
    25    12    13   ar
    26    13    14   ar
    27    14    15   ar
    28    15    16   ar
    29    16    17   ar
    30    17    18    1
    31    18    19    1
    32    18    20    2
    33    18    21    2
    34    33    25    1
    35    17    12   ar
    36    32    27    1
    37     2     3    1
    38    19    22    1
    39    19    23    1
