@<TRIPOS>MOLECULE
*****
 60 65 0 0 0
SMALL
GASTEIGER

@<TRIPOS>ATOM
      1 N          59.9747   89.4574    7.8572 N.3     1  UNL1       -0.2650
      2 C          59.4666   88.0625    8.0713 C.3     1  UNL1        0.0900
      3 C          59.8187   87.3203    9.3263 C.3     1  UNL1        0.0901
      4 N          60.6789   87.9731   10.3674 N.3     1  UNL1       -0.2621
      5 C          61.1870   89.3682   10.1534 C.3     1  UNL1        0.1510
      6 C          60.8349   90.1104    8.8983 C.3     1  UNL1        0.0980
      7 C          62.0472   90.0210   11.1945 C.2     1  UNL1        0.2386
      8 O          61.7857   89.7682   12.6497 O.2     1  UNL1       -0.2736
      9 N          63.1689   90.9268   10.7803 N.am    1  UNL1       -0.2961
     10 H          63.3406   91.0927    9.8252 H       1  UNL1        0.1497
     11 C          64.0291   91.5796   11.8214 C.3     1  UNL1        0.1939
     12 C          65.1831   92.4435   11.4067 C.3     1  UNL1        0.4154
     13 F          66.3371   93.3074   10.9920 F       1  UNL1       -0.1682
     14 F          65.1964   91.7800   10.0615 F       1  UNL1       -0.1682
     15 F          65.1697   93.1070   12.7519 F       1  UNL1       -0.1682
     16 C          59.6225   90.1996    6.6022 C.3     1  UNL1        0.1147
     17 C          58.2031   89.7297    6.7225 C.3     1  UNL1        0.0255
     18 C          61.0419   90.6695    6.4818 C.3     1  UNL1        0.0255
     19 C          59.4575   92.1815    3.2689 C.ar    1  UNL1        0.1675
     20 C          57.9995   91.9862    3.5625 C.ar    1  UNL1        0.1392
     21 N          57.8838   91.2200    4.8469 N.ar    1  UNL1       -0.2094
     22 C          59.2704   90.9417    5.3471 C.ar    1  UNL1        0.2185
     23 O          60.2429   91.5360    4.3719 O.2     1  UNL1       -0.4370
     24 C          62.0636   93.9448    0.8506 C.ar    1  UNL1        0.1579
     25 C          61.1738   94.3271   -0.2948 C.ar    1  UNL1        0.1356
     26 N          59.7118   93.9942   -0.2523 N.ar    1  UNL1       -0.2390
     27 C          59.1397   93.2790    0.9356 C.ar    1  UNL1        0.1021
     28 C          60.0295   92.8967    2.0810 C.ar    1  UNL1        0.0583
     29 C          61.4915   93.2295    2.0385 C.ar    1  UNL1        0.0432
     30 C          64.5433   93.2323    1.1569 C.3     1  UNL1        0.2525
     31 O          63.5256   94.2776    0.8080 O.3     1  UNL1       -0.4699
     32 C          61.0310   87.2310   11.6225 C.3     1  UNL1        0.1021
     33 C          62.1485   86.2304   11.6137 C.3     1  UNL1        0.1269
     34 O          61.9077   84.8417   11.1005 O.3     1  UNL1       -0.3830
     35 H          60.9843   84.7579   10.8155 H       1  UNL1        0.2104
     36 C          63.5068   86.6186   12.1180 C.3     1  UNL1        0.0401
     37 C          63.8659   86.3914   13.5565 C.3     1  UNL1        0.0833
     38 C          63.9336   87.5516   14.5049 C.2     1  UNL1        0.2226
     39 O          63.6457   87.3464   15.9627 O.2     1  UNL1       -0.2751
     40 N          64.2893   88.9168   13.9955 N.am    1  UNL1       -0.2999
     41 H          64.4783   89.0515   13.0388 H       1  UNL1        0.1498
     42 C          64.3571   90.0770   14.9439 C.3     1  UNL1        0.1278
     43 C          65.5725   90.9557   14.9684 C.ar    1  UNL1        0.0320
     44 C          66.7203   90.6742   14.0445 C.ar    1  UNL1        0.0004
     45 C          67.9357   91.5529   14.0690 C.ar    1  UNL1       -0.0001
     46 C          68.0034   92.7130   15.0174 C.ar    1  UNL1        0.0031
     47 C          66.8558   92.9945   15.9413 C.ar    1  UNL1        0.0366
     48 C          65.6403   92.1158   15.9168 C.ar    1  UNL1        0.1362
     49 O          64.4926   92.3973   16.8407 O.3     1  UNL1       -0.4730
     50 C          63.2772   91.5187   16.8162 C.3     1  UNL1        0.2364
     51 C          63.2094   90.3585   15.8678 C.3     1  UNL1        0.1762
     52 O          61.9939   89.4798   15.8433 O.3     1  UNL1       -0.3788
     53 H          61.3518   89.7979   16.4971 H       1  UNL1        0.2106
     54 C          64.1572   85.0040   14.0467 C.3     1  UNL1        0.0355
     55 C          63.7974   83.8187   13.2009 C.ar    1  UNL1       -0.0217
     56 C          62.6408   82.9450   13.5871 C.ar    1  UNL1       -0.0043
     57 C          62.2810   81.7597   12.7412 C.ar    1  UNL1       -0.0003
     58 C          63.0776   81.4480   11.5091 C.ar    1  UNL1       -0.0000
     59 C          64.2342   82.3216   11.1228 C.ar    1  UNL1       -0.0003
     60 C          64.5940   83.5070   11.9687 C.ar    1  UNL1       -0.0043
@<TRIPOS>BOND
     1    30    31    1
     2    31    24    1
     3    24    25   ar
     4    25    26   ar
     5    26    27   ar
     6    27    28   ar
     7    28    19    1
     8    19    20   ar
     9    20    21   ar
    10    21    22   ar
    11    22    16    1
    12    16    17    1
    13    16    18    1
    14    16     1    1
    15     1     2    1
    16     2     3    1
    17     3     4    1
    18     4    32    1
    19    32    33    1
    20    33    34    1
    21    33    36    1
    22    37    36    1
    23    37    54    1
    24    54    55    1
    25    55    56   ar
    26    56    57   ar
    27    57    58   ar
    28    58    59   ar
    29    59    60   ar
    30    37    38    1
    31    38    39    2
    32    38    40   am
    33    42    40    1
    34    42    43    1
    35    43    44   ar
    36    44    45   ar
    37    45    46   ar
    38    46    47   ar
    39    47    48   ar
    40    48    49    1
    41    49    50    1
    42    50    51    1
    43    51    52    1
    44     4     5    1
    45     5     7    1
    46     7     8    2
    47     7     9   am
    48     9    11    1
    49    11    12    1
    50    12    13    1
    51    12    14    1
    52    12    15    1
    53     5     6    1
    54    22    23   ar
    55    28    29   ar
    56    29    24   ar
    57    23    19   ar
    58     6     1    1
    59    60    55   ar
    60    51    42    1
    61    48    43   ar
    62    34    35    1
    63    40    41    1
    64    52    53    1
    65     9    10    1
@<TRIPOS>MOLECULE
*****
 60 65 0 0 0
SMALL
GASTEIGER

@<TRIPOS>ATOM
      1 N          59.7238   90.1393    6.0345 N.3     1  UNL1       -0.2650
      2 C          59.4403   88.7073    5.6897 C.3     1  UNL1        0.0900
      3 C          59.4178   87.6662    6.7694 C.3     1  UNL1        0.0901
      4 N          59.6789   88.0572    8.1938 N.3     1  UNL1       -0.2621
      5 C          59.9625   89.4892    8.5386 C.3     1  UNL1        0.1510
      6 C          59.9850   90.5303    7.4590 C.3     1  UNL1        0.0980
      7 C          60.2236   89.8801    9.9630 C.2     1  UNL1        0.2386
      8 O          61.5165   90.5443   10.3336 O.2     1  UNL1       -0.2736
      9 N          59.1917   89.6069   11.0170 N.am    1  UNL1       -0.2961
     10 H          58.3431   89.1711   10.7738 H       1  UNL1        0.1497
     11 C          59.4528   89.9979   12.4414 C.3     1  UNL1        0.1939
     12 C          58.8895   89.1734   13.5606 C.3     1  UNL1        0.4154
     13 F          58.3260   88.3489   14.6799 F       1  UNL1       -0.1682
     14 F          57.6757   88.8763   12.7309 F       1  UNL1       -0.1682
     15 F          60.1032   89.4705   14.3904 F       1  UNL1       -0.1682
     16 C          59.7463   91.1804    4.9549 C.3     1  UNL1        0.1147
     17 C          61.2154   90.9476    4.7609 C.3     1  UNL1        0.0255
     18 C          58.2772   91.4132    5.1488 C.3     1  UNL1        0.0255
     19 C          59.7854   93.2841    1.6931 C.ar    1  UNL1        0.1675
     20 C          59.8213   94.3632    2.7344 C.ar    1  UNL1        0.1392
     21 N          59.8111   93.7065    4.0831 N.ar    1  UNL1       -0.2094
     22 C          59.7688   92.2215    3.8752 C.ar    1  UNL1        0.2185
     23 O          59.7529   91.9605    2.3982 O.2     1  UNL1       -0.4370
     24 C          58.8124   92.9431   -2.1392 C.ar    1  UNL1        0.1579
     25 C          59.7763   93.9081   -2.7633 C.ar    1  UNL1        0.1356
     26 N          60.7433   94.6651   -1.9019 N.ar    1  UNL1       -0.2390
     27 C          60.7464   94.4571   -0.4164 C.ar    1  UNL1        0.1021
     28 C          59.7824   93.4921    0.2077 C.ar    1  UNL1        0.0583
     29 C          58.8154   92.7351   -0.6537 C.ar    1  UNL1        0.0432
     30 C          56.3775   92.2265   -2.6943 C.3     1  UNL1        0.2525
     31 O          57.8454   92.1861   -3.0005 O.3     1  UNL1       -0.4699
     32 C          59.6564   87.0161    9.2734 C.3     1  UNL1        0.1021
     33 C          60.9405   86.5513    9.8940 C.3     1  UNL1        0.1269
     34 O          61.9668   85.8478    9.0562 O.3     1  UNL1       -0.3830
     35 H          61.6453   85.7758    8.1439 H       1  UNL1        0.2104
     36 C          61.1982   86.7899   11.3523 C.3     1  UNL1        0.0401
     37 C          62.5521   86.5039   11.9312 C.3     1  UNL1        0.0833
     38 C          63.2534   87.5470   12.7497 C.2     1  UNL1        0.2226
     39 O          64.2577   87.1372   13.7859 O.2     1  UNL1       -0.2751
     40 N          62.9506   88.9999   12.5321 N.am    1  UNL1       -0.2999
     41 H          62.2914   89.2688   11.8521 H       1  UNL1        0.1498
     42 C          63.6519   90.0430   13.3506 C.3     1  UNL1        0.1278
     43 C          64.3927   91.1565   12.6713 C.ar    1  UNL1        0.0320
     44 C          64.4320   91.2268   11.1734 C.ar    1  UNL1        0.0004
     45 C          65.1728   92.3403   10.4941 C.ar    1  UNL1       -0.0001
     46 C          65.8741   93.3834   11.3126 C.ar    1  UNL1        0.0031
     47 C          65.8348   93.3131   12.8104 C.ar    1  UNL1        0.0366
     48 C          65.0940   92.1996   13.4898 C.ar    1  UNL1        0.1362
     49 O          65.0547   92.1293   14.9876 O.3     1  UNL1       -0.4730
     50 C          64.3140   91.0158   15.6669 C.3     1  UNL1        0.2364
     51 C          63.6126   89.9727   14.8484 C.3     1  UNL1        0.1762
     52 O          62.8719   88.8592   15.5278 O.3     1  UNL1       -0.3788
     53 H          62.9452   88.9616   16.4896 H       1  UNL1        0.2106
     54 C          63.2046   85.1746   11.6917 C.3     1  UNL1        0.0355
     55 C          62.8357   83.9942   12.5406 C.ar    1  UNL1       -0.0217
     56 C          62.7236   82.6319   11.9228 C.ar    1  UNL1       -0.0043
     57 C          62.3546   81.4515   12.7716 C.ar    1  UNL1       -0.0003
     58 C          62.0978   81.6333   14.2382 C.ar    1  UNL1       -0.0000
     59 C          62.2099   82.9956   14.8560 C.ar    1  UNL1       -0.0003
     60 C          62.5789   84.1760   14.0072 C.ar    1  UNL1       -0.0043
@<TRIPOS>BOND
     1    30    31    1
     2    31    24    1
     3    24    25   ar
     4    25    26   ar
     5    26    27   ar
     6    27    28   ar
     7    28    19    1
     8    19    20   ar
     9    20    21   ar
    10    21    22   ar
    11    22    16    1
    12    16    17    1
    13    16    18    1
    14    16     1    1
    15     1     2    1
    16     2     3    1
    17     3     4    1
    18     4    32    1
    19    32    33    1
    20    33    34    1
    21    33    36    1
    22    37    36    1
    23    37    54    1
    24    54    55    1
    25    55    56   ar
    26    56    57   ar
    27    57    58   ar
    28    58    59   ar
    29    59    60   ar
    30    37    38    1
    31    38    39    2
    32    38    40   am
    33    42    40    1
    34    42    43    1
    35    43    44   ar
    36    44    45   ar
    37    45    46   ar
    38    46    47   ar
    39    47    48   ar
    40    48    49    1
    41    49    50    1
    42    50    51    1
    43    51    52    1
    44     4     5    1
    45     5     7    1
    46     7     8    2
    47     7     9   am
    48     9    11    1
    49    11    12    1
    50    12    13    1
    51    12    14    1
    52    12    15    1
    53     5     6    1
    54    22    23   ar
    55    28    29   ar
    56    29    24   ar
    57    23    19   ar
    58     6     1    1
    59    60    55   ar
    60    51    42    1
    61    48    43   ar
    62    34    35    1
    63    40    41    1
    64    52    53    1
    65     9    10    1
@<TRIPOS>MOLECULE
*****
 60 65 0 0 0
SMALL
GASTEIGER

@<TRIPOS>ATOM
      1 N          59.8120   89.4038    7.3901 N.3     1  UNL1       -0.2650
      2 C          59.3870   87.9660    7.4359 C.3     1  UNL1        0.0900
      3 C          59.7159   87.1245    8.6332 C.3     1  UNL1        0.0901
      4 N          60.4699   87.7207    9.7847 N.3     1  UNL1       -0.2621
      5 C          60.8949   89.1586    9.7389 C.3     1  UNL1        0.1510
      6 C          60.5660   90.0001    8.5416 C.3     1  UNL1        0.0980
      7 C          61.6489   89.7548   10.8904 C.2     1  UNL1        0.2386
      8 O          61.0934   89.6595   12.2805 O.2     1  UNL1       -0.2736
      9 N          62.9584   90.4464   10.6519 N.am    1  UNL1       -0.2961
     10 H          63.3230   90.5090    9.7396 H       1  UNL1        0.1497
     11 C          63.7124   91.0427   11.8034 C.3     1  UNL1        0.1939
     12 C          64.7963   92.0480   11.5500 C.3     1  UNL1        0.4154
     13 F          65.8804   93.0534   11.2967 F       1  UNL1       -0.1682
     14 F          65.3358   91.8142   12.9300 F       1  UNL1       -0.1682
     15 F          64.2569   92.2818   10.1701 F       1  UNL1       -0.1682
     16 C          59.4830   90.2453    6.1927 C.3     1  UNL1        0.1147
     17 C          58.0220   89.9858    6.4117 C.3     1  UNL1        0.0255
     18 C          60.9441   90.5049    5.9737 C.3     1  UNL1        0.0255
     19 C          59.3779   92.4349    2.9895 C.ar    1  UNL1        0.1675
     20 C          57.9177   92.3289    3.3162 C.ar    1  UNL1        0.1392
     21 N          57.7793   91.4958    4.5559 N.ar    1  UNL1       -0.2094
     22 C          59.1540   91.0869    4.9954 C.ar    1  UNL1        0.2185
     23 O          60.1419   91.6673    4.0273 O.2     1  UNL1       -0.4370
     24 C          61.9996   94.3481    0.7057 C.ar    1  UNL1        0.1579
     25 C          61.1542   94.6643   -0.4924 C.ar    1  UNL1        0.1356
     26 N          59.7168   94.2373   -0.5298 N.ar    1  UNL1       -0.2390
     27 C          59.1246   93.4942    0.6308 C.ar    1  UNL1        0.1021
     28 C          59.9700   93.1780    1.8289 C.ar    1  UNL1        0.0583
     29 C          61.4074   93.6050    1.8663 C.ar    1  UNL1        0.0432
     30 C          64.5252   93.7658    0.5251 C.3     1  UNL1        0.2525
     31 O          63.4371   94.7751    0.7431 O.3     1  UNL1       -0.4699
     32 C          60.7989   86.8792   10.9820 C.3     1  UNL1        0.1021
     33 C          62.1737   86.2998   11.1367 C.3     1  UNL1        0.1269
     34 O          62.6068   85.1548   10.2698 O.3     1  UNL1       -0.3830
     35 H          61.8848   84.9129    9.6690 H       1  UNL1        0.2104
     36 C          63.1155   86.8653   12.1581 C.3     1  UNL1        0.0401
     37 C          63.5242   86.0380   13.3406 C.3     1  UNL1        0.0833
     38 C          62.9818   84.6496   13.5082 C.2     1  UNL1        0.2226
     39 O          61.6822   84.4336   14.2254 O.2     1  UNL1       -0.2751
     40 N          63.7389   83.4772   12.9585 N.am    1  UNL1       -0.2999
     41 H          64.5919   83.6190   12.4877 H       1  UNL1        0.1498
     42 C          63.1965   82.0888   13.1260 C.3     1  UNL1        0.1278
     43 C          63.1014   81.1728   11.9420 C.ar    1  UNL1        0.0320
     44 C          63.5487   81.6452   10.5904 C.ar    1  UNL1        0.0004
     45 C          63.4536   80.7293    9.4064 C.ar    1  UNL1       -0.0001
     46 C          62.9112   79.3408    9.5739 C.ar    1  UNL1        0.0031
     47 C          62.4639   78.8684   10.9254 C.ar    1  UNL1        0.0366
     48 C          62.5590   79.7844   12.1095 C.ar    1  UNL1        0.1362
     49 O          62.1117   79.3119   13.4610 O.3     1  UNL1       -0.4730
     50 C          62.2068   80.2279   14.6450 C.3     1  UNL1        0.2364
     51 C          62.7493   81.6163   14.4775 C.3     1  UNL1        0.1762
     52 O          62.8444   82.5323   15.6616 O.3     1  UNL1       -0.3788
     53 H          62.5165   82.0747   16.4516 H       1  UNL1        0.2106
     54 C          64.4754   86.5992   14.3558 C.3     1  UNL1        0.0355
     55 C          64.1063   87.8300   15.1295 C.ar    1  UNL1       -0.0217
     56 C          64.4642   89.1860   14.5971 C.ar    1  UNL1       -0.0043
     57 C          64.0951   90.4168   15.3709 C.ar    1  UNL1       -0.0003
     58 C          63.3681   90.2918   16.6770 C.ar    1  UNL1       -0.0000
     59 C          63.0103   88.9359   17.2094 C.ar    1  UNL1       -0.0003
     60 C          63.3794   87.7050   16.4356 C.ar    1  UNL1       -0.0043
@<TRIPOS>BOND
     1    30    31    1
     2    31    24    1
     3    24    25   ar
     4    25    26   ar
     5    26    27   ar
     6    27    28   ar
     7    28    19    1
     8    19    20   ar
     9    20    21   ar
    10    21    22   ar
    11    22    16    1
    12    16    17    1
    13    16    18    1
    14    16     1    1
    15     1     2    1
    16     2     3    1
    17     3     4    1
    18     4    32    1
    19    32    33    1
    20    33    34    1
    21    33    36    1
    22    37    36    1
    23    37    54    1
    24    54    55    1
    25    55    56   ar
    26    56    57   ar
    27    57    58   ar
    28    58    59   ar
    29    59    60   ar
    30    37    38    1
    31    38    39    2
    32    38    40   am
    33    42    40    1
    34    42    43    1
    35    43    44   ar
    36    44    45   ar
    37    45    46   ar
    38    46    47   ar
    39    47    48   ar
    40    48    49    1
    41    49    50    1
    42    50    51    1
    43    51    52    1
    44     4     5    1
    45     5     7    1
    46     7     8    2
    47     7     9   am
    48     9    11    1
    49    11    12    1
    50    12    13    1
    51    12    14    1
    52    12    15    1
    53     5     6    1
    54    22    23   ar
    55    28    29   ar
    56    29    24   ar
    57    23    19   ar
    58     6     1    1
    59    60    55   ar
    60    51    42    1
    61    48    43   ar
    62    34    35    1
    63    40    41    1
    64    52    53    1
    65     9    10    1
@<TRIPOS>MOLECULE
*****
 60 65 0 0 0
SMALL
GASTEIGER

@<TRIPOS>ATOM
      1 N          59.9573   90.0546    6.0523 N.3     1  UNL1       -0.2650
      2 C          59.6237   88.6271    5.7346 C.3     1  UNL1        0.0900
      3 C          59.4976   87.6222    6.8411 C.3     1  UNL1        0.0901
      4 N          59.7050   88.0448    8.2653 N.3     1  UNL1       -0.2621
      5 C          60.0386   89.4723    8.5830 C.3     1  UNL1        0.1510
      6 C          60.1648   90.4772    7.4766 C.3     1  UNL1        0.0980
      7 C          60.2460   89.8949   10.0072 C.2     1  UNL1        0.2386
      8 O          61.5136   90.5907   10.4061 O.2     1  UNL1       -0.2736
      9 N          59.1858   89.6218   11.0326 N.am    1  UNL1       -0.2961
     10 H          58.3538   89.1651   10.7709 H       1  UNL1        0.1497
     11 C          59.3932   90.0443   12.4568 C.3     1  UNL1        0.1939
     12 C          58.8831   89.1855   13.5758 C.3     1  UNL1        0.4154
     13 F          58.3731   88.3266   14.6949 F       1  UNL1       -0.1682
     14 F          60.1219   89.4820   14.3680 F       1  UNL1       -0.1682
     15 F          57.6444   88.8890   12.7836 F       1  UNL1       -0.1682
     16 C          60.0835   91.0595    4.9458 C.3     1  UNL1        0.1147
     17 C          61.5544   90.7787    4.8586 C.3     1  UNL1        0.0255
     18 C          58.6126   91.3402    5.0331 C.3     1  UNL1        0.0255
     19 C          61.1223   93.4171    2.0427 C.ar    1  UNL1        0.1675
     20 C          59.6854   93.8044    2.2306 C.ar    1  UNL1        0.1392
     21 N          59.1213   92.9684    3.3410 N.ar    1  UNL1       -0.2094
     22 C          60.2097   92.0644    3.8394 C.ar    1  UNL1        0.2185
     23 O          61.4463   92.3417    3.0370 O.2     1  UNL1       -0.4370
     24 C          64.1537   95.4520    0.4874 C.ar    1  UNL1        0.1579
     25 C          63.9622   95.1732   -0.9740 C.ar    1  UNL1        0.1356
     26 N          62.8241   94.3089   -1.4297 N.ar    1  UNL1       -0.2390
     27 C          61.8774   93.7236   -0.4242 C.ar    1  UNL1        0.1021
     28 C          62.0689   94.0024    1.0371 C.ar    1  UNL1        0.0583
     29 C          63.2071   94.8666    1.4929 C.ar    1  UNL1        0.0432
     30 C          65.3102   96.8558    2.3427 C.3     1  UNL1        0.2525
     31 O          65.2919   96.3162    0.9432 O.3     1  UNL1       -0.4699
     32 C          59.5788   87.0399    9.3717 C.3     1  UNL1        0.1021
     33 C          60.8100   86.4740   10.0149 C.3     1  UNL1        0.1269
     34 O          61.7130   85.5648    9.2353 O.3     1  UNL1       -0.3830
     35 H          61.3587   85.4472    8.3400 H       1  UNL1        0.2104
     36 C          61.1383   86.8172   11.4377 C.3     1  UNL1        0.0401
     37 C          62.5097   86.5409   11.9787 C.3     1  UNL1        0.0833
     38 C          63.2276   87.5904   12.7745 C.2     1  UNL1        0.2226
     39 O          64.2421   87.1881   13.8036 O.2     1  UNL1       -0.2751
     40 N          62.9309   89.0421   12.5413 N.am    1  UNL1       -0.2999
     41 H          62.2651   89.3062   11.8659 H       1  UNL1        0.1498
     42 C          63.6488   90.0916   13.3371 C.3     1  UNL1        0.1278
     43 C          64.3928   91.1879   12.6339 C.ar    1  UNL1        0.0320
     44 C          64.4191   91.2347   11.1348 C.ar    1  UNL1        0.0004
     45 C          65.1631   92.3310   10.4316 C.ar    1  UNL1       -0.0001
     46 C          65.8810   93.3804   11.2274 C.ar    1  UNL1        0.0031
     47 C          65.8547   93.3336   12.7264 C.ar    1  UNL1        0.0366
     48 C          65.1107   92.2373   13.4297 C.ar    1  UNL1        0.1362
     49 O          65.0845   92.1905   14.9287 O.3     1  UNL1       -0.4730
     50 C          64.3404   91.0943   15.6319 C.3     1  UNL1        0.2364
     51 C          63.6226   90.0448   14.8361 C.3     1  UNL1        0.1762
     52 O          62.8785   88.9485   15.5394 O.3     1  UNL1       -0.3788
     53 H          62.9616   89.0651   16.4987 H       1  UNL1        0.2106
     54 C          63.1634   85.2151   11.7239 C.3     1  UNL1        0.0355
     55 C          62.8113   84.0297   12.5729 C.ar    1  UNL1       -0.0217
     56 C          62.6124   84.1978   14.0502 C.ar    1  UNL1       -0.0043
     57 C          62.2603   83.0125   14.8992 C.ar    1  UNL1       -0.0003
     58 C          62.1069   81.6590   14.2710 C.ar    1  UNL1       -0.0000
     59 C          62.3058   81.4909   12.7938 C.ar    1  UNL1       -0.0003
     60 C          62.6580   82.6762   11.9447 C.ar    1  UNL1       -0.0043
@<TRIPOS>BOND
     1    30    31    1
     2    31    24    1
     3    24    25   ar
     4    25    26   ar
     5    26    27   ar
     6    27    28   ar
     7    28    19    1
     8    19    20   ar
     9    20    21   ar
    10    21    22   ar
    11    22    16    1
    12    16    17    1
    13    16    18    1
    14    16     1    1
    15     1     2    1
    16     2     3    1
    17     3     4    1
    18     4    32    1
    19    32    33    1
    20    33    34    1
    21    33    36    1
    22    37    36    1
    23    37    54    1
    24    54    55    1
    25    55    56   ar
    26    56    57   ar
    27    57    58   ar
    28    58    59   ar
    29    59    60   ar
    30    37    38    1
    31    38    39    2
    32    38    40   am
    33    42    40    1
    34    42    43    1
    35    43    44   ar
    36    44    45   ar
    37    45    46   ar
    38    46    47   ar
    39    47    48   ar
    40    48    49    1
    41    49    50    1
    42    50    51    1
    43    51    52    1
    44     4     5    1
    45     5     7    1
    46     7     8    2
    47     7     9   am
    48     9    11    1
    49    11    12    1
    50    12    13    1
    51    12    14    1
    52    12    15    1
    53     5     6    1
    54    22    23   ar
    55    28    29   ar
    56    29    24   ar
    57    23    19   ar
    58     6     1    1
    59    60    55   ar
    60    51    42    1
    61    48    43   ar
    62    34    35    1
    63    40    41    1
    64    52    53    1
    65     9    10    1
@<TRIPOS>MOLECULE
*****
 60 65 0 0 0
SMALL
GASTEIGER

@<TRIPOS>ATOM
      1 N          59.8727   89.6739    6.7700 N.3     1  UNL1       -0.2650
      2 C          59.4029   88.2498    6.7361 C.3     1  UNL1        0.0900
      3 C          59.6188   87.3603    7.9244 C.3     1  UNL1        0.0901
      4 N          60.3045   87.8948    9.1467 N.3     1  UNL1       -0.2621
      5 C          60.7744   89.3190    9.1806 C.3     1  UNL1        0.1510
      6 C          60.5585   90.2085    7.9923 C.3     1  UNL1        0.0980
      7 C          61.4602   89.8535   10.4029 C.2     1  UNL1        0.2386
      8 O          60.7872   89.7632   11.7404 O.2     1  UNL1       -0.2736
      9 N          62.8190   90.4785   10.2877 N.am    1  UNL1       -0.2961
     10 H          63.2607   90.5378    9.4098 H       1  UNL1        0.1497
     11 C          63.5048   91.0130   11.5099 C.3     1  UNL1        0.1939
     12 C          64.6259   91.9996   11.3697 C.3     1  UNL1        0.4154
     13 F          65.7471   92.9862   11.2296 F       1  UNL1       -0.1682
     14 F          65.1916   91.5432   12.6818 F       1  UNL1       -0.1682
     15 F          64.0603   92.4560   10.0576 F       1  UNL1       -0.1682
     16 C          59.6568   90.5634    5.5817 C.3     1  UNL1        0.1147
     17 C          61.1381   90.6149    5.3511 C.3     1  UNL1        0.0255
     18 C          58.1756   90.5119    5.8122 C.3     1  UNL1        0.0255
     19 C          59.8494   92.8485    2.4501 C.ar    1  UNL1        0.1675
     20 C          58.3680   92.7951    2.6792 C.ar    1  UNL1        0.1392
     21 N          58.1154   91.9325    3.8802 N.ar    1  UNL1       -0.2094
     22 C          59.4409   91.4529    4.3933 C.ar    1  UNL1        0.2185
     23 O          60.5125   92.0191    3.5095 O.2     1  UNL1       -0.4370
     24 C          62.6870   94.0789   -0.0366 C.ar    1  UNL1        0.1579
     25 C          61.9377   95.1017   -0.8380 C.ar    1  UNL1        0.1356
     26 N          60.4922   95.3734   -0.5434 N.ar    1  UNL1       -0.2390
     27 C          59.7961   94.6224    0.5526 C.ar    1  UNL1        0.1021
     28 C          60.5454   93.5996    1.3541 C.ar    1  UNL1        0.0583
     29 C          61.9909   93.3278    1.0595 C.ar    1  UNL1        0.0432
     30 C          65.0718   93.4543    0.7839 C.3     1  UNL1        0.2525
     31 O          64.1325   93.8071   -0.3312 O.3     1  UNL1       -0.4699
     32 C          60.5204   87.0053   10.3350 C.3     1  UNL1        0.1021
     33 C          61.9138   86.6822   10.7867 C.3     1  UNL1        0.1269
     34 O          62.7744   87.7532   11.3885 O.3     1  UNL1       -0.3830
     35 H          62.2819   88.5885   11.4121 H       1  UNL1        0.2104
     36 C          62.4466   85.2881   10.6366 C.3     1  UNL1        0.0401
     37 C          63.1034   84.6068   11.8003 C.3     1  UNL1        0.0833
     38 C          62.8335   85.0817   13.1973 C.2     1  UNL1        0.2226
     39 O          61.6063   84.6165   13.9237 O.2     1  UNL1       -0.2751
     40 N          63.7909   86.0217   13.8680 N.am    1  UNL1       -0.2999
     41 H          64.5963   86.3270   13.3913 H       1  UNL1        0.1498
     42 C          63.5210   86.4966   15.2650 C.3     1  UNL1        0.1278
     43 C          63.5566   87.9630   15.5787 C.ar    1  UNL1        0.0320
     44 C          63.8620   88.9545   14.4953 C.ar    1  UNL1        0.0004
     45 C          63.8976   90.4209   14.8090 C.ar    1  UNL1       -0.0001
     46 C          63.6277   90.8958   16.2060 C.ar    1  UNL1        0.0031
     47 C          63.3223   89.9044   17.2894 C.ar    1  UNL1        0.0366
     48 C          63.2867   88.4379   16.9757 C.ar    1  UNL1        0.1362
     49 O          62.9813   87.4464   18.0590 O.3     1  UNL1       -0.4730
     50 C          62.9457   85.9801   17.7454 C.3     1  UNL1        0.2364
     51 C          63.2156   85.5052   16.3483 C.3     1  UNL1        0.1762
     52 O          63.1800   84.0387   16.0347 O.3     1  UNL1       -0.3788
     53 H          62.9698   83.5408   16.8402 H       1  UNL1        0.2106
     54 C          64.0301   83.4505   11.5671 C.3     1  UNL1        0.0355
     55 C          63.5097   82.0457   11.6401 C.ar    1  UNL1       -0.0217
     56 C          63.4153   81.2151   10.3946 C.ar    1  UNL1       -0.0043
     57 C          62.8948   79.8102   10.4676 C.ar    1  UNL1       -0.0003
     58 C          62.4688   79.2358   11.7861 C.ar    1  UNL1       -0.0000
     59 C          62.5631   80.0663   13.0316 C.ar    1  UNL1       -0.0003
     60 C          63.0836   81.4712   12.9586 C.ar    1  UNL1       -0.0043
@<TRIPOS>BOND
     1    30    31    1
     2    31    24    1
     3    24    25   ar
     4    25    26   ar
     5    26    27   ar
     6    27    28   ar
     7    28    19    1
     8    19    20   ar
     9    20    21   ar
    10    21    22   ar
    11    22    16    1
    12    16    17    1
    13    16    18    1
    14    16     1    1
    15     1     2    1
    16     2     3    1
    17     3     4    1
    18     4    32    1
    19    32    33    1
    20    33    34    1
    21    33    36    1
    22    37    36    1
    23    37    54    1
    24    54    55    1
    25    55    56   ar
    26    56    57   ar
    27    57    58   ar
    28    58    59   ar
    29    59    60   ar
    30    37    38    1
    31    38    39    2
    32    38    40   am
    33    42    40    1
    34    42    43    1
    35    43    44   ar
    36    44    45   ar
    37    45    46   ar
    38    46    47   ar
    39    47    48   ar
    40    48    49    1
    41    49    50    1
    42    50    51    1
    43    51    52    1
    44     4     5    1
    45     5     7    1
    46     7     8    2
    47     7     9   am
    48     9    11    1
    49    11    12    1
    50    12    13    1
    51    12    14    1
    52    12    15    1
    53     5     6    1
    54    22    23   ar
    55    28    29   ar
    56    29    24   ar
    57    23    19   ar
    58     6     1    1
    59    60    55   ar
    60    51    42    1
    61    48    43   ar
    62    34    35    1
    63    40    41    1
    64    52    53    1
    65     9    10    1
@<TRIPOS>MOLECULE
*****
 60 65 0 0 0
SMALL
GASTEIGER

@<TRIPOS>ATOM
      1 N          59.7187   90.8812    5.1633 N.3     1  UNL1       -0.2650
      2 C          58.4103   91.4751    4.7329 C.3     1  UNL1        0.0900
      3 C          58.3650   92.4351    3.5812 C.3     1  UNL1        0.0901
      4 N          59.6282   92.8011    2.8598 N.3     1  UNL1       -0.2621
      5 C          60.9367   92.2072    3.2902 C.3     1  UNL1        0.1510
      6 C          60.9820   91.2472    4.4419 C.3     1  UNL1        0.0980
      7 C          62.1998   92.5732    2.5688 C.2     1  UNL1        0.2386
      8 O          63.5131   92.0075    3.0219 O.2     1  UNL1       -0.2736
      9 N          62.1497   93.5049    1.3943 N.am    1  UNL1       -0.2961
     10 H          61.2878   93.8762    1.0969 H       1  UNL1        0.1497
     11 C          63.4129   93.8709    0.6729 C.3     1  UNL1        0.1939
     12 C          64.2531   95.0124    1.1638 C.3     1  UNL1        0.4154
     13 F          65.0933   96.1540    1.6548 F       1  UNL1       -0.1682
     14 F          65.4544   94.4177    0.4908 F       1  UNL1       -0.1682
     15 F          63.0517   95.6072    1.8368 F       1  UNL1       -0.1682
     16 C          59.7640   89.9213    6.3150 C.3     1  UNL1        0.1147
     17 C          61.2250   90.2083    6.4968 C.3     1  UNL1        0.0255
     18 C          58.3030   89.6342    6.1331 C.3     1  UNL1        0.0255
     19 C          60.5745   87.7123    9.4019 C.ar    1  UNL1        0.1675
     20 C          59.1832   87.2559    9.0762 C.ar    1  UNL1        0.1392
     21 N          58.7102   88.0279    7.8802 N.ar    1  UNL1       -0.2094
     22 C          59.8092   88.9613    7.4667 C.ar    1  UNL1        0.2185
     23 O          60.9614   88.7662    8.4072 O.2     1  UNL1       -0.4370
     24 C          62.3585   85.2233   11.9262 C.ar    1  UNL1        0.1579
     25 C          63.1375   86.1869   12.7714 C.ar    1  UNL1        0.1356
     26 N          63.0623   87.6590   12.4935 N.ar    1  UNL1       -0.2390
     27 C          62.2079   88.1675   11.3703 C.ar    1  UNL1        0.1021
     28 C          61.4289   87.2039   10.5250 C.ar    1  UNL1        0.0583
     29 C          61.5042   85.7318   10.8030 C.ar    1  UNL1        0.0432
     30 C          63.0119   83.2609   13.4985 C.3     1  UNL1        0.2525
     31 O          62.4338   83.7512   12.2041 O.3     1  UNL1       -0.4699
     32 C          59.5829   93.7610    1.7081 C.3     1  UNL1        0.1021
     33 C          58.9758   93.3387    0.4031 C.3     1  UNL1        0.1269
     34 O          59.1142   91.9201   -0.0642 O.3     1  UNL1       -0.3830
     35 H          59.6202   91.4124    0.5893 H       1  UNL1        0.2104
     36 C          58.2301   94.3349   -0.4345 C.3     1  UNL1        0.0401
     37 C          57.6042   93.9074   -1.7288 C.3     1  UNL1        0.0833
     38 C          58.4482   93.7714   -2.9613 C.2     1  UNL1        0.2226
     39 O          58.2936   92.5711   -3.8476 O.2     1  UNL1       -0.2751
     40 N          59.4469   94.8357   -3.3075 N.am    1  UNL1       -0.2999
     41 H          59.5484   95.6234   -2.7259 H       1  UNL1        0.1498
     42 C          60.2910   94.6997   -4.5400 C.3     1  UNL1        0.1278
     43 C          61.6637   94.1022   -4.4468 C.ar    1  UNL1        0.0320
     44 C          62.1923   93.6406   -3.1211 C.ar    1  UNL1        0.0004
     45 C          63.5650   93.0431   -3.0278 C.ar    1  UNL1       -0.0001
     46 C          64.4090   92.9071   -4.2603 C.ar    1  UNL1        0.0031
     47 C          63.8805   93.3686   -5.5860 C.ar    1  UNL1        0.0366
     48 C          62.5078   93.9662   -5.6793 C.ar    1  UNL1        0.1362
     49 O          61.9792   94.4277   -7.0050 O.3     1  UNL1       -0.4730
     50 C          60.6065   95.0252   -7.0982 C.3     1  UNL1        0.2364
     51 C          59.7624   95.1612   -5.8657 C.3     1  UNL1        0.1762
     52 O          58.3897   95.7588   -5.9590 O.3     1  UNL1       -0.3788
     53 H          58.2049   96.0022   -6.8796 H       1  UNL1        0.2106
     54 C          56.1340   93.6158   -1.7907 C.3     1  UNL1        0.0355
     55 C          55.1948   94.6201   -2.3901 C.ar    1  UNL1       -0.0217
     56 C          55.2875   94.9563   -3.8490 C.ar    1  UNL1       -0.0043
     57 C          54.3483   95.9605   -4.4484 C.ar    1  UNL1       -0.0003
     58 C          53.3164   96.6288   -3.5889 C.ar    1  UNL1       -0.0000
     59 C          53.2238   96.2927   -2.1300 C.ar    1  UNL1       -0.0003
     60 C          54.1630   95.2884   -1.5305 C.ar    1  UNL1       -0.0043
@<TRIPOS>BOND
     1    30    31    1
     2    31    24    1
     3    24    25   ar
     4    25    26   ar
     5    26    27   ar
     6    27    28   ar
     7    28    19    1
     8    19    20   ar
     9    20    21   ar
    10    21    22   ar
    11    22    16    1
    12    16    17    1
    13    16    18    1
    14    16     1    1
    15     1     2    1
    16     2     3    1
    17     3     4    1
    18     4    32    1
    19    32    33    1
    20    33    34    1
    21    33    36    1
    22    37    36    1
    23    37    54    1
    24    54    55    1
    25    55    56   ar
    26    56    57   ar
    27    57    58   ar
    28    58    59   ar
    29    59    60   ar
    30    37    38    1
    31    38    39    2
    32    38    40   am
    33    42    40    1
    34    42    43    1
    35    43    44   ar
    36    44    45   ar
    37    45    46   ar
    38    46    47   ar
    39    47    48   ar
    40    48    49    1
    41    49    50    1
    42    50    51    1
    43    51    52    1
    44     4     5    1
    45     5     7    1
    46     7     8    2
    47     7     9   am
    48     9    11    1
    49    11    12    1
    50    12    13    1
    51    12    14    1
    52    12    15    1
    53     5     6    1
    54    22    23   ar
    55    28    29   ar
    56    29    24   ar
    57    23    19   ar
    58     6     1    1
    59    60    55   ar
    60    51    42    1
    61    48    43   ar
    62    34    35    1
    63    40    41    1
    64    52    53    1
    65     9    10    1
@<TRIPOS>MOLECULE
*****
 60 65 0 0 0
SMALL
GASTEIGER

@<TRIPOS>ATOM
      1 N          59.7543   91.0077    5.0830 N.3     1  UNL1       -0.2650
      2 C          58.4625   91.6664    4.6994 C.3     1  UNL1        0.0900
      3 C          58.4338   92.6683    3.5835 C.3     1  UNL1        0.0901
      4 N          59.6971   93.0117    2.8511 N.3     1  UNL1       -0.2621
      5 C          60.9890   92.3530    3.2347 C.3     1  UNL1        0.1510
      6 C          61.0177   91.3510    4.3506 C.3     1  UNL1        0.0980
      7 C          62.2523   92.6963    2.5024 C.2     1  UNL1        0.2386
      8 O          63.3554   91.6855    2.3952 O.2     1  UNL1       -0.2736
      9 N          62.4124   94.0504    1.8772 N.am    1  UNL1       -0.2961
     10 H          61.6884   94.7138    1.9475 H       1  UNL1        0.1497
     11 C          63.6756   94.3937    1.1449 C.3     1  UNL1        0.1939
     12 C          63.8824   93.9118   -0.2604 C.3     1  UNL1        0.4154
     13 F          64.0892   93.4299   -1.6658 F       1  UNL1       -0.1682
     14 F          62.3993   93.9282   -0.4843 F       1  UNL1       -0.1682
     15 F          65.3655   93.8954   -0.0366 F       1  UNL1       -0.1682
     16 C          59.7830   90.0058    6.1989 C.3     1  UNL1        0.1147
     17 C          61.2592   90.2215    6.3547 C.3     1  UNL1        0.0255
     18 C          58.3068   89.7901    6.0431 C.3     1  UNL1        0.0255
     19 C          60.5467   87.6875    9.2169 C.ar    1  UNL1        0.1675
     20 C          59.1647   87.2363    8.8472 C.ar    1  UNL1        0.1392
     21 N          58.7104   88.0498    7.6716 N.ar    1  UNL1       -0.2094
     22 C          59.8116   89.0038    7.3148 C.ar    1  UNL1        0.2185
     23 O          60.9464   88.7799    8.2698 O.2     1  UNL1       -0.4370
     24 C          62.3280   85.1142   11.6570 C.ar    1  UNL1        0.1579
     25 C          63.0528   86.0512   12.5771 C.ar    1  UNL1        0.1356
     26 N          62.9422   87.5338   12.3771 N.ar    1  UNL1       -0.2390
     27 C          62.1068   88.0792   11.2570 C.ar    1  UNL1        0.1021
     28 C          61.3820   87.1422   10.3369 C.ar    1  UNL1        0.0583
     29 C          61.4926   85.6597   10.5369 C.ar    1  UNL1        0.0432
     30 C          63.5535   82.8682   11.2057 C.3     1  UNL1        0.2525
     31 O          62.4386   83.6317   11.8570 O.3     1  UNL1       -0.4699
     32 C          59.6684   94.0136    1.7352 C.3     1  UNL1        0.1021
     33 C          59.0231   93.6617    0.4277 C.3     1  UNL1        0.1269
     34 O          58.9438   92.2285   -0.0078 O.3     1  UNL1       -0.3830
     35 H          59.3531   91.6629    0.6656 H       1  UNL1        0.2104
     36 C          58.4572   94.7430   -0.4444 C.3     1  UNL1        0.0401
     37 C          58.2741   94.5026   -1.9136 C.3     1  UNL1        0.0833
     38 C          59.4718   94.3455   -2.8029 C.2     1  UNL1        0.2226
     39 O          60.3097   93.1040   -2.7201 O.2     1  UNL1       -0.2751
     40 N          59.8317   95.4297   -3.7749 N.am    1  UNL1       -0.2999
     41 H          59.2818   96.2445   -3.8292 H       1  UNL1        0.1498
     42 C          61.0294   95.2725   -4.6642 C.3     1  UNL1        0.1278
     43 C          62.3781   95.7303   -4.1936 C.ar    1  UNL1        0.0320
     44 C          62.5291   96.3453   -2.8338 C.ar    1  UNL1        0.0004
     45 C          63.8778   96.8031   -2.3633 C.ar    1  UNL1       -0.0001
     46 C          65.0755   96.6459   -3.2526 C.ar    1  UNL1        0.0031
     47 C          64.9246   96.0310   -4.6123 C.ar    1  UNL1        0.0366
     48 C          63.5758   95.5732   -5.0829 C.ar    1  UNL1        0.1362
     49 O          63.4249   94.9582   -6.4427 O.3     1  UNL1       -0.4730
     50 C          62.0762   94.5004   -6.9132 C.3     1  UNL1        0.2364
     51 C          60.8785   94.6576   -6.0239 C.3     1  UNL1        0.1762
     52 O          59.5297   94.1997   -6.4945 O.3     1  UNL1       -0.3788
     53 H          59.6075   93.8293   -7.3876 H       1  UNL1        0.2106
     54 C          56.8932   94.4194   -2.4937 C.3     1  UNL1        0.0355
     55 C          56.4560   93.1786   -3.2142 C.ar    1  UNL1       -0.0217
     56 C          56.1556   91.9288   -2.4410 C.ar    1  UNL1       -0.0043
     57 C          55.7183   90.6880   -3.1616 C.ar    1  UNL1       -0.0003
     58 C          55.5814   90.6970   -4.6553 C.ar    1  UNL1       -0.0000
     59 C          55.8817   91.9468   -5.4285 C.ar    1  UNL1       -0.0003
     60 C          56.3190   93.1876   -4.7079 C.ar    1  UNL1       -0.0043
@<TRIPOS>BOND
     1    30    31    1
     2    31    24    1
     3    24    25   ar
     4    25    26   ar
     5    26    27   ar
     6    27    28   ar
     7    28    19    1
     8    19    20   ar
     9    20    21   ar
    10    21    22   ar
    11    22    16    1
    12    16    17    1
    13    16    18    1
    14    16     1    1
    15     1     2    1
    16     2     3    1
    17     3     4    1
    18     4    32    1
    19    32    33    1
    20    33    34    1
    21    33    36    1
    22    37    36    1
    23    37    54    1
    24    54    55    1
    25    55    56   ar
    26    56    57   ar
    27    57    58   ar
    28    58    59   ar
    29    59    60   ar
    30    37    38    1
    31    38    39    2
    32    38    40   am
    33    42    40    1
    34    42    43    1
    35    43    44   ar
    36    44    45   ar
    37    45    46   ar
    38    46    47   ar
    39    47    48   ar
    40    48    49    1
    41    49    50    1
    42    50    51    1
    43    51    52    1
    44     4     5    1
    45     5     7    1
    46     7     8    2
    47     7     9   am
    48     9    11    1
    49    11    12    1
    50    12    13    1
    51    12    14    1
    52    12    15    1
    53     5     6    1
    54    22    23   ar
    55    28    29   ar
    56    29    24   ar
    57    23    19   ar
    58     6     1    1
    59    60    55   ar
    60    51    42    1
    61    48    43   ar
    62    34    35    1
    63    40    41    1
    64    52    53    1
    65     9    10    1
@<TRIPOS>MOLECULE
*****
 60 65 0 0 0
SMALL
GASTEIGER

@<TRIPOS>ATOM
      1 N          59.6071   91.0800    4.8478 N.3     1  UNL1       -0.2650
      2 C          58.2817   91.6615    4.4541 C.3     1  UNL1        0.0900
      3 C          58.1808   92.5514    3.2508 C.3     1  UNL1        0.0901
      4 N          59.4053   92.8600    2.4413 N.3     1  UNL1       -0.2621
      5 C          60.7308   92.2785    2.8350 C.3     1  UNL1        0.1510
      6 C          60.8318   91.3886    4.0383 C.3     1  UNL1        0.0980
      7 C          61.9553   92.5871    2.0256 C.2     1  UNL1        0.2386
      8 O          62.2210   91.8394    0.7526 O.2     1  UNL1       -0.2736
      9 N          62.9143   93.6434    2.4890 N.am    1  UNL1       -0.2961
     10 H          62.7399   94.1342    3.3244 H       1  UNL1        0.1497
     11 C          64.1388   93.9520    1.6795 C.3     1  UNL1        0.1939
     12 C          64.0322   94.8158    0.4579 C.3     1  UNL1        0.4154
     13 F          63.9256   95.6797   -0.7638 F       1  UNL1       -0.1682
     14 F          65.1720   94.0693   -0.1694 F       1  UNL1       -0.1682
     15 F          62.8924   95.5623    1.0852 F       1  UNL1       -0.1682
     16 C          59.7081   90.1901    6.0510 C.3     1  UNL1        0.1147
     17 C          61.2024   90.3164    6.0191 C.3     1  UNL1        0.0255
     18 C          58.2138   90.0637    6.0829 C.3     1  UNL1        0.0255
     19 C          60.6241   88.2416    9.2806 C.ar    1  UNL1        0.1675
     20 C          59.3047   87.6195    8.9311 C.ar    1  UNL1        0.1392
     21 N          58.8009   88.2737    7.6788 N.ar    1  UNL1       -0.2094
     22 C          59.8090   89.3001    7.2542 C.ar    1  UNL1        0.2185
     23 O          60.9358   89.2802    8.2442 O.2     1  UNL1       -0.4370
     24 C          63.1403   88.5959   12.3289 C.ar    1  UNL1        0.1579
     25 C          63.1956   87.1786   12.8170 C.ar    1  UNL1        0.1356
     26 N          62.3937   86.1157   12.1263 N.ar    1  UNL1       -0.2390
     27 C          61.5365   86.4700   10.9475 C.ar    1  UNL1        0.1021
     28 C          61.4812   87.8872   10.4594 C.ar    1  UNL1        0.0583
     29 C          62.2831   88.9502   11.1501 C.ar    1  UNL1        0.0432
     30 C          63.8974   91.0737   12.5232 C.3     1  UNL1        0.2525
     31 O          63.9422   89.6589   13.0197 O.3     1  UNL1       -0.4699
     32 C          59.3043   93.7500    1.2381 C.3     1  UNL1        0.1021
     33 C          58.7962   93.1995   -0.0614 C.3     1  UNL1        0.1269
     34 O          57.3563   92.8015   -0.1954 O.3     1  UNL1       -0.3830
     35 H          56.8967   92.9631    0.6434 H       1  UNL1        0.2104
     36 C          59.7281   93.0471   -1.2269 C.3     1  UNL1        0.0401
     37 C          59.9280   94.1868   -2.1814 C.3     1  UNL1        0.0833
     38 C          58.7539   94.7678   -2.9121 C.2     1  UNL1        0.2226
     39 O          58.7428   96.2228   -3.2769 O.2     1  UNL1       -0.2751
     40 N          57.5910   93.8940   -3.2780 N.am    1  UNL1       -0.2999
     41 H          57.5983   92.9390   -3.0386 H       1  UNL1        0.1498
     42 C          56.4169   94.4750   -4.0088 C.3     1  UNL1        0.1278
     43 C          55.3303   95.1738   -3.2467 C.ar    1  UNL1        0.0320
     44 C          55.4176   95.2915   -1.7538 C.ar    1  UNL1        0.0004
     45 C          54.3309   95.9903   -0.9917 C.ar    1  UNL1       -0.0001
     46 C          53.1569   96.5714   -1.7224 C.ar    1  UNL1        0.0031
     47 C          53.0695   96.4536   -3.2152 C.ar    1  UNL1        0.0366
     48 C          54.1562   95.7548   -3.9774 C.ar    1  UNL1        0.1362
     49 O          54.0688   95.6371   -5.4702 O.3     1  UNL1       -0.4730
     50 C          55.1555   94.9384   -6.2322 C.3     1  UNL1        0.2364
     51 C          56.3295   94.3573   -5.5015 C.3     1  UNL1        0.1762
     52 O          57.4162   93.6585   -6.2637 O.3     1  UNL1       -0.3788
     53 H          57.2064   93.6710   -7.2107 H       1  UNL1        0.2106
     54 C          61.3020   94.7455   -2.4052 C.3     1  UNL1        0.0355
     55 C          62.2357   94.0764   -3.3698 C.ar    1  UNL1       -0.0217
     56 C          63.2450   93.0849   -2.8713 C.ar    1  UNL1       -0.0043
     57 C          64.1788   92.4158   -3.8359 C.ar    1  UNL1       -0.0003
     58 C          64.1033   92.7381   -5.2989 C.ar    1  UNL1       -0.0000
     59 C          63.0940   93.7295   -5.7974 C.ar    1  UNL1       -0.0003
     60 C          62.1602   94.3987   -4.8328 C.ar    1  UNL1       -0.0043
@<TRIPOS>BOND
     1    30    31    1
     2    31    24    1
     3    24    25   ar
     4    25    26   ar
     5    26    27   ar
     6    27    28   ar
     7    28    19    1
     8    19    20   ar
     9    20    21   ar
    10    21    22   ar
    11    22    16    1
    12    16    17    1
    13    16    18    1
    14    16     1    1
    15     1     2    1
    16     2     3    1
    17     3     4    1
    18     4    32    1
    19    32    33    1
    20    33    34    1
    21    33    36    1
    22    37    36    1
    23    37    54    1
    24    54    55    1
    25    55    56   ar
    26    56    57   ar
    27    57    58   ar
    28    58    59   ar
    29    59    60   ar
    30    37    38    1
    31    38    39    2
    32    38    40   am
    33    42    40    1
    34    42    43    1
    35    43    44   ar
    36    44    45   ar
    37    45    46   ar
    38    46    47   ar
    39    47    48   ar
    40    48    49    1
    41    49    50    1
    42    50    51    1
    43    51    52    1
    44     4     5    1
    45     5     7    1
    46     7     8    2
    47     7     9   am
    48     9    11    1
    49    11    12    1
    50    12    13    1
    51    12    14    1
    52    12    15    1
    53     5     6    1
    54    22    23   ar
    55    28    29   ar
    56    29    24   ar
    57    23    19   ar
    58     6     1    1
    59    60    55   ar
    60    51    42    1
    61    48    43   ar
    62    34    35    1
    63    40    41    1
    64    52    53    1
    65     9    10    1
@<TRIPOS>MOLECULE
*****
 60 65 0 0 0
SMALL
GASTEIGER

@<TRIPOS>ATOM
      1 N          60.0662   89.0494    7.8716 N.3     1  UNL1       -0.2650
      2 C          59.6888   89.4646    9.2627 C.3     1  UNL1        0.0900
      3 C          60.0875   88.6153   10.4330 C.3     1  UNL1        0.0901
      4 N          60.8636   87.3509   10.2123 N.3     1  UNL1       -0.2621
      5 C          61.2410   86.9356    8.8212 C.3     1  UNL1        0.1510
      6 C          60.8423   87.7849    7.6508 C.3     1  UNL1        0.0980
      7 C          62.0171   85.6711    8.6004 C.2     1  UNL1        0.2386
      8 O          62.0059   85.0096    7.2542 O.2     1  UNL1       -0.2736
      9 N          62.8043   85.0681    9.7259 N.am    1  UNL1       -0.2961
     10 H          62.8116   85.5023   10.6095 H       1  UNL1        0.1497
     11 C          63.5804   83.8036    9.5052 C.3     1  UNL1        0.1939
     12 C          63.8192   82.8612   10.6474 C.3     1  UNL1        0.4154
     13 F          64.0579   81.9187   11.7897 F       1  UNL1       -0.1682
     14 F          62.5248   83.2904   11.2721 F       1  UNL1       -0.1682
     15 F          65.1135   82.4320   10.0227 F       1  UNL1       -0.1682
     16 C          59.6674   89.8987    6.7012 C.3     1  UNL1        0.1147
     17 C          61.0196   90.5480    6.7118 C.3     1  UNL1        0.0255
     18 C          58.3153   89.2493    6.6907 C.3     1  UNL1        0.0255
     19 C          59.3764   92.1299    3.5385 C.ar    1  UNL1        0.1675
     20 C          57.9338   91.9799    3.9211 C.ar    1  UNL1        0.1392
     21 N          57.8672   91.1258    5.1525 N.ar    1  UNL1       -0.2094
     22 C          59.2687   90.7480    5.5309 C.ar    1  UNL1        0.2185
     23 O          60.2014   91.3685    4.5334 O.2     1  UNL1       -0.4370
     24 C          61.8500   94.1552    1.1871 C.ar    1  UNL1        0.1579
     25 C          60.9525   94.4557    0.0234 C.ar    1  UNL1        0.1356
     26 N          59.5297   93.9809    0.0314 N.ar    1  UNL1       -0.2390
     27 C          59.0043   93.2056    1.2031 C.ar    1  UNL1        0.1021
     28 C          59.9017   92.9051    2.3668 C.ar    1  UNL1        0.0583
     29 C          61.3246   93.3800    2.3588 C.ar    1  UNL1        0.0432
     30 C          64.3802   93.6874    1.5471 C.3     1  UNL1        0.2525
     31 O          63.2729   94.6301    1.1791 O.3     1  UNL1       -0.4699
     32 C          61.2623   86.5016   11.3827 C.3     1  UNL1        0.1021
     33 C          62.4471   86.8853   12.2187 C.3     1  UNL1        0.1269
     34 O          63.2900   85.8218   12.8577 O.3     1  UNL1       -0.3830
     35 H          62.9344   84.9481   12.6318 H       1  UNL1        0.2104
     36 C          62.7889   88.3325   12.4158 C.3     1  UNL1        0.0401
     37 C          63.8487   88.7253   13.4019 C.3     1  UNL1        0.0833
     38 C          64.2726   90.1596   13.5158 C.2     1  UNL1        0.2226
     39 O          63.5503   91.0831   14.4515 O.2     1  UNL1       -0.2751
     40 N          65.4188   90.6704   12.6940 N.am    1  UNL1       -0.2999
     41 H          65.8928   90.0643   12.0799 H       1  UNL1        0.1498
     42 C          65.8427   92.1048   12.8079 C.3     1  UNL1        0.1278
     43 C          66.6883   92.5473   13.9651 C.ar    1  UNL1        0.0320
     44 C          67.1099   91.5555   15.0085 C.ar    1  UNL1        0.0004
     45 C          67.9554   91.9980   16.1658 C.ar    1  UNL1       -0.0001
     46 C          68.3794   93.4323   16.2796 C.ar    1  UNL1        0.0031
     47 C          67.9578   94.4241   15.2363 C.ar    1  UNL1        0.0366
     48 C          67.1122   93.9816   14.0790 C.ar    1  UNL1        0.1362
     49 O          66.6906   94.9734   13.0357 O.3     1  UNL1       -0.4730
     50 C          65.8451   94.5309   11.8785 C.3     1  UNL1        0.2364
     51 C          65.4211   93.0965   11.7646 C.3     1  UNL1        0.1762
     52 O          64.5755   92.6540   10.6073 O.3     1  UNL1       -0.3788
     53 H          64.3941   93.4126   10.0307 H       1  UNL1        0.2106
     54 C          64.4846   87.6837   14.2742 C.3     1  UNL1        0.0355
     55 C          63.8546   87.3168   15.5851 C.ar    1  UNL1       -0.0217
     56 C          63.7000   85.8740   15.9653 C.ar    1  UNL1       -0.0043
     57 C          63.0701   85.5071   17.2762 C.ar    1  UNL1       -0.0003
     58 C          62.5946   86.5830   18.2069 C.ar    1  UNL1       -0.0000
     59 C          62.7491   88.0258   17.8269 C.ar    1  UNL1       -0.0003
     60 C          63.3791   88.3927   16.5159 C.ar    1  UNL1       -0.0043
@<TRIPOS>BOND
     1    30    31    1
     2    31    24    1
     3    24    25   ar
     4    25    26   ar
     5    26    27   ar
     6    27    28   ar
     7    28    19    1
     8    19    20   ar
     9    20    21   ar
    10    21    22   ar
    11    22    16    1
    12    16    17    1
    13    16    18    1
    14    16     1    1
    15     1     2    1
    16     2     3    1
    17     3     4    1
    18     4    32    1
    19    32    33    1
    20    33    34    1
    21    33    36    1
    22    37    36    1
    23    37    54    1
    24    54    55    1
    25    55    56   ar
    26    56    57   ar
    27    57    58   ar
    28    58    59   ar
    29    59    60   ar
    30    37    38    1
    31    38    39    2
    32    38    40   am
    33    42    40    1
    34    42    43    1
    35    43    44   ar
    36    44    45   ar
    37    45    46   ar
    38    46    47   ar
    39    47    48   ar
    40    48    49    1
    41    49    50    1
    42    50    51    1
    43    51    52    1
    44     4     5    1
    45     5     7    1
    46     7     8    2
    47     7     9   am
    48     9    11    1
    49    11    12    1
    50    12    13    1
    51    12    14    1
    52    12    15    1
    53     5     6    1
    54    22    23   ar
    55    28    29   ar
    56    29    24   ar
    57    23    19   ar
    58     6     1    1
    59    60    55   ar
    60    51    42    1
    61    48    43   ar
    62    34    35    1
    63    40    41    1
    64    52    53    1
    65     9    10    1
