@<TRIPOS>MOLECULE
*****
 37 39 0 0 0
SMALL
GASTEIGER

@<TRIPOS>ATOM
      1 C          61.0792   86.3538   10.3056 C.3     1  UNL1        0.1777
      2 C          60.8999   88.6719    8.9868 C.ar    1  UNL1        0.1982
      3 N          61.4423   90.0549    9.1942 N.ar    1  UNL1       -0.2138
      4 C          62.2612   90.0481   10.4510 C.ar    1  UNL1        0.0996
      5 C          63.0351   91.1258   11.1506 C.ar    1  UNL1        0.0161
      6 C          63.7728   90.8162   12.4194 C.ar    1  UNL1       -0.0242
      7 C          64.5468   91.8939   13.1190 C.3     1  UNL1        0.0307
      8 C          63.7364   89.4289   12.9887 C.ar    1  UNL1       -0.0243
      9 C          64.4741   89.1194   14.2576 C.3     1  UNL1        0.0307
     10 C          62.9624   88.3512   12.2892 C.ar    1  UNL1        0.0142
     11 C          62.2248   88.6608   11.0203 C.ar    1  UNL1        0.0799
     12 N          61.3835   87.8103   10.1154 N.ar    1  UNL1       -0.2921
     13 N          60.0272   88.2284    7.8503 N.pl3   1  UNL1       -0.3042
     14 H          60.1071   87.3132    7.4964 H       1  UNL1        0.1496
     15 C          59.0327   89.1793    7.2530 C.3     1  UNL1        0.0921
     16 C          59.4016   89.9903    6.0463 C.3     1  UNL1        0.0533
     17 C          58.3772   90.8688    5.3912 C.3     1  UNL1        0.1440
     18 C          59.7499   92.4741    3.8785 C.3     1  UNL1        0.1741
     19 O          58.7427   92.2610    4.9694 O.3     1  UNL1       -0.3510
     20 C          62.1981   85.3581   10.3857 C.2     1  UNL1        0.1958
     21 O          63.0691   85.1108    9.1897 O.2     1  UNL1       -0.2893
     22 C          62.4461   84.6095   11.6617 C.ar    1  UNL1        0.0362
     23 C          62.8399   85.3535   12.9032 C.ar    1  UNL1        0.0016
     24 C          63.0880   84.6049   14.1792 C.ar    1  UNL1        0.0107
     25 C          62.9422   83.1125   14.2137 C.ar    1  UNL1        0.1255
     26 O          63.1903   82.3638   15.4897 O.3     1  UNL1       -0.5061
     27 C          62.5484   82.3685   12.9721 C.ar    1  UNL1        0.0107
     28 C          62.3004   83.1171   11.6961 C.ar    1  UNL1        0.0016
     29 H          63.4363   82.8285   16.2653 H       1  UNL1        0.2922
     30 C          63.4818   85.3489   15.4208 C.3     1  UNL1        0.0218
     31 C          64.8405   85.6023   14.8380 C.3     1  UNL1        0.0045
     32 C          62.1231   85.0955   16.0036 C.3     1  UNL1        0.0045
     33 C          63.8756   86.0928   16.6623 C.3     1  UNL1        0.0045
     34 C          62.4027   80.8760   13.0065 C.3     1  UNL1        0.0218
     35 C          63.5471   80.7421   12.0462 C.3     1  UNL1        0.0045
     36 C          61.2581   81.0099   13.9669 C.3     1  UNL1        0.0045
     37 C          62.2568   79.3835   13.0409 C.3     1  UNL1        0.0045
@<TRIPOS>BOND
     1    18    19    1
     2    19    17    1
     3    17    16    1
     4    16    15    1
     5    15    13    1
     6    13     2    1
     7     2     3   ar
     8     3     4   ar
     9     4     5   ar
    10     5     6   ar
    11     6     7    1
    12     6     8   ar
    13     8     9    1
    14     8    10   ar
    15    10    11   ar
    16    11    12   ar
    17    12     1    1
    18     1    20    1
    19    20    21    2
    20    20    22    1
    21    22    23   ar
    22    23    24   ar
    23    24    30    1
    24    30    31    1
    25    30    32    1
    26    30    33    1
    27    24    25   ar
    28    25    26    1
    29    25    27   ar
    30    27    34    1
    31    34    35    1
    32    34    36    1
    33    34    37    1
    34    27    28   ar
    35    12     2   ar
    36    28    22   ar
    37    11     4   ar
    38    13    14    1
    39    26    29    1
@<TRIPOS>MOLECULE
*****
 37 39 0 0 0
SMALL
GASTEIGER

@<TRIPOS>ATOM
      1 C          61.0753   86.3544   10.3618 C.3     1  UNL1        0.1777
      2 C          60.9338   88.6352    8.9750 C.ar    1  UNL1        0.1982
      3 N          61.4918   90.0170    9.1462 N.ar    1  UNL1       -0.2138
      4 C          62.3017   90.0367   10.4086 C.ar    1  UNL1        0.0996
      5 C          63.0840   91.1248   11.0823 C.ar    1  UNL1        0.0161
      6 C          63.8089   90.8434   12.3650 C.ar    1  UNL1       -0.0242
      7 C          64.5913   91.9316   13.0387 C.3     1  UNL1        0.0307
      8 C          63.7514   89.4738   12.9740 C.ar    1  UNL1       -0.0243
      9 C          64.4763   89.1924   14.2567 C.3     1  UNL1        0.0307
     10 C          62.9691   88.3856   12.3003 C.ar    1  UNL1        0.0142
     11 C          62.2442   88.6671   11.0177 C.ar    1  UNL1        0.0799
     12 N          61.3988   87.8009   10.1316 N.ar    1  UNL1       -0.2921
     13 N          60.0636   88.1694    7.8455 N.pl3   1  UNL1       -0.3042
     14 H          60.1862   87.2681    7.4689 H       1  UNL1        0.1496
     15 C          59.0066   89.0770    7.2896 C.3     1  UNL1        0.0921
     16 C          59.3116   89.9474    6.1067 C.3     1  UNL1        0.0533
     17 C          58.2345   90.8016    5.5064 C.3     1  UNL1        0.1440
     18 C          59.7783   92.3321    4.0837 C.3     1  UNL1        0.1741
     19 O          58.5708   92.1558    4.9559 O.3     1  UNL1       -0.3510
     20 C          62.1800   85.3438   10.4511 C.2     1  UNL1        0.1958
     21 O          63.0327   85.0566    9.2509 O.2     1  UNL1       -0.2893
     22 C          62.4321   84.6201   11.7406 C.ar    1  UNL1        0.0362
     23 C          62.3194   83.1254   11.7963 C.ar    1  UNL1        0.0016
     24 C          62.5716   82.4018   13.0857 C.ar    1  UNL1        0.0107
     25 C          62.9364   83.1729   14.3196 C.ar    1  UNL1        0.1255
     26 O          63.1885   82.4493   15.6091 O.3     1  UNL1       -0.5061
     27 C          63.0491   84.6676   14.2639 C.ar    1  UNL1        0.0107
     28 C          62.7969   85.3912   12.9744 C.ar    1  UNL1        0.0016
     29 H          63.1182   81.5156   15.6440 H       1  UNL1        0.2922
     30 C          62.4589   80.9071   13.1414 C.3     1  UNL1        0.0218
     31 C          63.7532   80.7817   12.3938 C.3     1  UNL1        0.0045
     32 C          61.1645   81.0325   13.8890 C.3     1  UNL1        0.0045
     33 C          62.3462   79.4123   13.1971 C.3     1  UNL1        0.0045
     34 C          63.4138   85.4387   15.4977 C.3     1  UNL1        0.0218
     35 C          62.0500   85.1770   16.0646 C.3     1  UNL1        0.0045
     36 C          64.7778   85.7005   14.9308 C.3     1  UNL1        0.0045
     37 C          63.7787   86.2099   16.7315 C.3     1  UNL1        0.0045
@<TRIPOS>BOND
     1    18    19    1
     2    19    17    1
     3    17    16    1
     4    16    15    1
     5    15    13    1
     6    13     2    1
     7     2     3   ar
     8     3     4   ar
     9     4     5   ar
    10     5     6   ar
    11     6     7    1
    12     6     8   ar
    13     8     9    1
    14     8    10   ar
    15    10    11   ar
    16    11    12   ar
    17    12     1    1
    18     1    20    1
    19    20    21    2
    20    20    22    1
    21    22    23   ar
    22    23    24   ar
    23    24    30    1
    24    30    31    1
    25    30    32    1
    26    30    33    1
    27    24    25   ar
    28    25    26    1
    29    25    27   ar
    30    27    34    1
    31    34    35    1
    32    34    36    1
    33    34    37    1
    34    27    28   ar
    35    12     2   ar
    36    28    22   ar
    37    11     4   ar
    38    13    14    1
    39    26    29    1
@<TRIPOS>MOLECULE
*****
 37 39 0 0 0
SMALL
GASTEIGER

@<TRIPOS>ATOM
      1 C          63.0680   85.1912   13.4342 C.3     1  UNL1        0.1777
      2 C          64.2784   83.2965   11.9884 C.ar    1  UNL1        0.1982
      3 N          64.3106   82.9304   10.5341 N.ar    1  UNL1       -0.2138
      4 C          63.4376   83.8991    9.7928 C.ar    1  UNL1        0.0996
      5 C          63.0894   84.0274    8.3395 C.ar    1  UNL1        0.0161
      6 C          62.1695   85.1203    7.8823 C.ar    1  UNL1       -0.0242
      7 C          61.8213   85.2486    6.4289 C.3     1  UNL1        0.0307
      8 C          61.5978   86.0851    8.8784 C.ar    1  UNL1       -0.0243
      9 C          60.6778   87.1782    8.4212 C.3     1  UNL1        0.0307
     10 C          61.9460   85.9569   10.3318 C.ar    1  UNL1        0.0142
     11 C          62.8659   84.8639   10.7890 C.ar    1  UNL1        0.0799
     12 N          63.3855   84.4915   12.1459 N.ar    1  UNL1       -0.2921
     13 N          65.0106   82.5914   13.0915 N.pl3   1  UNL1       -0.3042
     14 H          65.9407   82.8372   13.3006 H       1  UNL1        0.1496
     15 C          64.3256   81.5119   13.8760 C.3     1  UNL1        0.0921
     16 C          63.1459   80.7934   13.2912 C.3     1  UNL1        0.0533
     17 C          61.7634   81.3440   13.4800 C.3     1  UNL1        0.1440
     18 C          59.4722   80.3420   14.1847 C.3     1  UNL1        0.1741
     19 O          60.8658   80.7712   14.5365 O.3     1  UNL1       -0.3510
     20 C          64.0254   86.2002   13.9954 C.2     1  UNL1        0.1958
     21 O          65.1649   85.7521   14.8620 O.2     1  UNL1       -0.2893
     22 C          63.8435   87.6575   13.6902 C.ar    1  UNL1        0.0362
     23 C          62.9872   88.0804   12.5334 C.ar    1  UNL1        0.0016
     24 C          62.8053   89.5377   12.2282 C.ar    1  UNL1        0.0107
     25 C          63.4796   90.5722   13.0797 C.ar    1  UNL1        0.1255
     26 O          63.2977   92.0295   12.7745 O.3     1  UNL1       -0.5061
     27 C          64.3359   90.1494   14.2364 C.ar    1  UNL1        0.0107
     28 C          64.5178   88.6920   14.5417 C.ar    1  UNL1        0.0016
     29 H          62.7628   92.2937   12.0520 H       1  UNL1        0.2922
     30 C          61.9490   89.9605   11.0715 C.3     1  UNL1        0.0218
     31 C          63.1785   90.1729   10.2390 C.3     1  UNL1        0.0045
     32 C          60.7195   89.7481   11.9040 C.3     1  UNL1        0.0045
     33 C          61.0927   90.3833    9.9148 C.3     1  UNL1        0.0045
     34 C          65.0102   91.1838   15.0880 C.3     1  UNL1        0.0218
     35 C          63.8967   91.0864   16.0882 C.3     1  UNL1        0.0045
     36 C          66.1239   91.2812   14.0877 C.3     1  UNL1        0.0045
     37 C          65.6847   92.2183   15.9395 C.3     1  UNL1        0.0045
@<TRIPOS>BOND
     1    18    19    1
     2    19    17    1
     3    17    16    1
     4    16    15    1
     5    15    13    1
     6    13     2    1
     7     2     3   ar
     8     3     4   ar
     9     4     5   ar
    10     5     6   ar
    11     6     7    1
    12     6     8   ar
    13     8     9    1
    14     8    10   ar
    15    10    11   ar
    16    11    12   ar
    17    12     1    1
    18     1    20    1
    19    20    21    2
    20    20    22    1
    21    22    23   ar
    22    23    24   ar
    23    24    30    1
    24    30    31    1
    25    30    32    1
    26    30    33    1
    27    24    25   ar
    28    25    26    1
    29    25    27   ar
    30    27    34    1
    31    34    35    1
    32    34    36    1
    33    34    37    1
    34    27    28   ar
    35    12     2   ar
    36    28    22   ar
    37    11     4   ar
    38    13    14    1
    39    26    29    1
@<TRIPOS>MOLECULE
*****
 37 39 0 0 0
SMALL
GASTEIGER

@<TRIPOS>ATOM
      1 C          63.1114   85.1977   13.4851 C.3     1  UNL1        0.1777
      2 C          64.2915   83.2765   12.0495 C.ar    1  UNL1        0.1982
      3 N          64.3169   82.9017   10.5973 N.ar    1  UNL1       -0.2138
      4 C          63.4584   83.8794    9.8510 C.ar    1  UNL1        0.0996
      5 C          63.1111   84.0047    8.3972 C.ar    1  UNL1        0.0161
      6 C          62.2078   85.1090    7.9343 C.ar    1  UNL1       -0.0242
      7 C          61.8605   85.2343    6.4804 C.3     1  UNL1        0.0307
      8 C          61.6517   86.0882    8.9253 C.ar    1  UNL1       -0.0243
      9 C          60.7483   87.1926    8.4624 C.3     1  UNL1        0.0307
     10 C          61.9990   85.9629   10.3792 C.ar    1  UNL1        0.0142
     11 C          62.9023   84.8585   10.8420 C.ar    1  UNL1        0.0799
     12 N          63.4172   84.4859   12.2007 N.ar    1  UNL1       -0.2921
     13 N          65.0135   82.5665   13.1561 N.pl3   1  UNL1       -0.3042
     14 H          65.9160   82.8573   13.4210 H       1  UNL1        0.1496
     15 C          64.3605   81.4135   13.8591 C.3     1  UNL1        0.0921
     16 C          63.1290   80.7824   13.2803 C.3     1  UNL1        0.0533
     17 C          61.7968   81.4532   13.4396 C.3     1  UNL1        0.1440
     18 C          59.5909   80.3010   14.1851 C.3     1  UNL1        0.1741
     19 O          60.8631   81.0171   14.5295 O.3     1  UNL1       -0.3510
     20 C          64.0741   86.2116   14.0284 C.2     1  UNL1        0.1958
     21 O          65.2321   85.7691   14.8731 O.2     1  UNL1       -0.2893
     22 C          63.8791   87.6680   13.7269 C.ar    1  UNL1        0.0362
     23 C          64.5379   88.7064   14.5858 C.ar    1  UNL1        0.0016
     24 C          64.3428   90.1628   14.2844 C.ar    1  UNL1        0.0107
     25 C          63.4891   90.5808   13.1241 C.ar    1  UNL1        0.1255
     26 O          63.2940   92.0372   12.8226 O.3     1  UNL1       -0.5061
     27 C          62.8304   89.5424   12.2652 C.ar    1  UNL1        0.0107
     28 C          63.0254   88.0860   12.5666 C.ar    1  UNL1        0.0016
     29 H          63.7055   92.6859   13.3591 H       1  UNL1        0.2922
     30 C          65.0016   91.2012   15.1433 C.3     1  UNL1        0.0218
     31 C          63.8721   91.1052   16.1257 C.3     1  UNL1        0.0045
     32 C          66.1311   91.2973   14.1610 C.3     1  UNL1        0.0045
     33 C          65.6603   92.2397   16.0022 C.3     1  UNL1        0.0045
     34 C          61.9766   89.9603   11.1048 C.3     1  UNL1        0.0218
     35 C          60.7447   89.7396   11.9317 C.3     1  UNL1        0.0045
     36 C          63.2086   90.1810   10.2779 C.3     1  UNL1        0.0045
     37 C          61.1229   90.3782    9.9444 C.3     1  UNL1        0.0045
@<TRIPOS>BOND
     1    18    19    1
     2    19    17    1
     3    17    16    1
     4    16    15    1
     5    15    13    1
     6    13     2    1
     7     2     3   ar
     8     3     4   ar
     9     4     5   ar
    10     5     6   ar
    11     6     7    1
    12     6     8   ar
    13     8     9    1
    14     8    10   ar
    15    10    11   ar
    16    11    12   ar
    17    12     1    1
    18     1    20    1
    19    20    21    2
    20    20    22    1
    21    22    23   ar
    22    23    24   ar
    23    24    30    1
    24    30    31    1
    25    30    32    1
    26    30    33    1
    27    24    25   ar
    28    25    26    1
    29    25    27   ar
    30    27    34    1
    31    34    35    1
    32    34    36    1
    33    34    37    1
    34    27    28   ar
    35    12     2   ar
    36    28    22   ar
    37    11     4   ar
    38    13    14    1
    39    26    29    1
@<TRIPOS>MOLECULE
*****
 37 39 0 0 0
SMALL
GASTEIGER

@<TRIPOS>ATOM
      1 C          64.4079   84.7701   13.1676 C.3     1  UNL1        0.1777
      2 C          63.2743   84.6112   15.5831 C.ar    1  UNL1        0.1982
      3 N          62.8863   85.6024   16.6399 N.ar    1  UNL1       -0.2138
      4 C          63.2529   86.9714   16.1485 C.ar    1  UNL1        0.0996
      5 C          63.1064   88.3314   16.7641 C.ar    1  UNL1        0.0161
      6 C          63.5747   89.5461   16.0191 C.ar    1  UNL1       -0.0242
      7 C          63.4282   90.9062   16.6347 C.3     1  UNL1        0.0307
      8 C          64.1893   89.4010   14.6586 C.ar    1  UNL1       -0.0243
      9 C          64.6575   90.6159   13.9136 C.3     1  UNL1        0.0307
     10 C          64.3357   88.0410   14.0430 C.ar    1  UNL1        0.0142
     11 C          63.8675   86.8262   14.7879 C.ar    1  UNL1        0.0799
     12 N          63.8808   85.3675   14.4385 N.ar    1  UNL1       -0.2921
     13 N          63.0885   83.1246   15.6578 N.pl3   1  UNL1       -0.3042
     14 H          63.7070   82.5776   16.1940 H       1  UNL1        0.1496
     15 C          61.9605   82.4715   14.9156 C.3     1  UNL1        0.0921
     16 C          62.1867   81.1741   14.1976 C.3     1  UNL1        0.0533
     17 C          61.0290   80.2651   13.9084 C.3     1  UNL1        0.1440
     18 C          58.6345   79.6327   14.6935 C.3     1  UNL1        0.1741
     19 O          59.6392   80.6737   14.2976 O.3     1  UNL1       -0.3510
     20 C          63.4559   84.2452   12.1343 C.2     1  UNL1        0.1958
     21 O          63.1781   82.7735   12.0491 O.2     1  UNL1       -0.2893
     22 C          62.7815   85.1917   11.1860 C.ar    1  UNL1        0.0362
     23 C          62.3787   86.5596   11.6515 C.ar    1  UNL1        0.0016
     24 C          61.7043   87.5061   10.7032 C.ar    1  UNL1        0.0107
     25 C          61.4327   87.0849    9.2894 C.ar    1  UNL1        0.1255
     26 O          60.7583   88.0314    8.3411 O.3     1  UNL1       -0.5061
     27 C          61.8356   85.7170    8.8239 C.ar    1  UNL1        0.0107
     28 C          62.5100   84.7704    9.7722 C.ar    1  UNL1        0.0016
     29 H          60.5067   88.8858    8.6318 H       1  UNL1        0.2922
     30 C          61.3014   88.8740   11.1687 C.3     1  UNL1        0.0218
     31 C          59.9045   88.3818   11.4059 C.3     1  UNL1        0.0045
     32 C          62.6984   89.3661   10.9314 C.3     1  UNL1        0.0045
     33 C          60.8986   90.2418   11.6342 C.3     1  UNL1        0.0045
     34 C          61.5641   85.2956    7.4102 C.3     1  UNL1        0.0218
     35 C          62.9970   84.8789    7.2591 C.3     1  UNL1        0.0045
     36 C          60.1310   85.7124    7.5612 C.3     1  UNL1        0.0045
     37 C          61.2925   84.8743    5.9964 C.3     1  UNL1        0.0045
@<TRIPOS>BOND
     1    18    19    1
     2    19    17    1
     3    17    16    1
     4    16    15    1
     5    15    13    1
     6    13     2    1
     7     2     3   ar
     8     3     4   ar
     9     4     5   ar
    10     5     6   ar
    11     6     7    1
    12     6     8   ar
    13     8     9    1
    14     8    10   ar
    15    10    11   ar
    16    11    12   ar
    17    12     1    1
    18     1    20    1
    19    20    21    2
    20    20    22    1
    21    22    23   ar
    22    23    24   ar
    23    24    30    1
    24    30    31    1
    25    30    32    1
    26    30    33    1
    27    24    25   ar
    28    25    26    1
    29    25    27   ar
    30    27    34    1
    31    34    35    1
    32    34    36    1
    33    34    37    1
    34    27    28   ar
    35    12     2   ar
    36    28    22   ar
    37    11     4   ar
    38    13    14    1
    39    26    29    1
@<TRIPOS>MOLECULE
*****
 37 39 0 0 0
SMALL
GASTEIGER

@<TRIPOS>ATOM
      1 C          64.4320   84.7811   13.1704 C.3     1  UNL1        0.1777
      2 C          63.2874   84.6155   15.5802 C.ar    1  UNL1        0.1982
      3 N          62.8945   85.6038   16.6380 N.ar    1  UNL1       -0.2138
      4 C          63.2633   86.9741   16.1520 C.ar    1  UNL1        0.0996
      5 C          63.1140   88.3324   16.7707 C.ar    1  UNL1        0.0161
      6 C          63.5856   89.5492   16.0312 C.ar    1  UNL1       -0.0242
      7 C          63.4363   90.9076   16.6499 C.3     1  UNL1        0.0307
      8 C          64.2064   89.4078   14.6731 C.ar    1  UNL1       -0.0243
      9 C          64.6780   90.6248   13.9336 C.3     1  UNL1        0.0307
     10 C          64.3557   88.0496   14.0544 C.ar    1  UNL1        0.0142
     11 C          63.8841   86.8327   14.7939 C.ar    1  UNL1        0.0799
     12 N          63.8990   85.3750   14.4405 N.ar    1  UNL1       -0.2921
     13 N          63.1013   83.1287   15.6500 N.pl3   1  UNL1       -0.3042
     14 H          63.7164   82.5804   16.1887 H       1  UNL1        0.1496
     15 C          61.9780   82.4774   14.8990 C.3     1  UNL1        0.0921
     16 C          62.1851   81.1409   14.2503 C.3     1  UNL1        0.0533
     17 C          61.0023   80.3225   13.8244 C.3     1  UNL1        0.1440
     18 C          58.6436   79.6346   14.6688 C.3     1  UNL1        0.1741
     19 O          59.6247   80.7010   14.2816 O.3     1  UNL1       -0.3510
     20 C          63.4848   84.2534   12.1339 C.2     1  UNL1        0.1958
     21 O          63.2205   82.7798   12.0404 O.2     1  UNL1       -0.2893
     22 C          62.8019   85.1991   11.1909 C.ar    1  UNL1        0.0362
     23 C          62.5198   84.7774    9.7794 C.ar    1  UNL1        0.0016
     24 C          61.8368   85.7232    8.8364 C.ar    1  UNL1        0.0107
     25 C          61.4361   87.0906    9.3050 C.ar    1  UNL1        0.1255
     26 O          60.7531   88.0364    8.3620 O.3     1  UNL1       -0.5061
     27 C          61.7182   87.5122   10.7165 C.ar    1  UNL1        0.0107
     28 C          62.4012   86.5665   11.6595 C.ar    1  UNL1        0.0016
     29 H          60.5769   87.7730    7.4802 H       1  UNL1        0.2922
     30 C          61.5547   85.3015    7.4248 C.3     1  UNL1        0.0218
     31 C          62.9859   84.8822    7.2640 C.3     1  UNL1        0.0045
     32 C          60.1235   85.7208    7.5856 C.3     1  UNL1        0.0045
     33 C          61.2725   84.8798    6.0132 C.3     1  UNL1        0.0045
     34 C          61.3175   88.8796   11.1852 C.3     1  UNL1        0.0218
     35 C          59.9268   88.3824   11.4471 C.3     1  UNL1        0.0045
     36 C          62.7083   89.3770   10.9233 C.3     1  UNL1        0.0045
     37 C          60.9168   90.2471   11.6539 C.3     1  UNL1        0.0045
@<TRIPOS>BOND
     1    18    19    1
     2    19    17    1
     3    17    16    1
     4    16    15    1
     5    15    13    1
     6    13     2    1
     7     2     3   ar
     8     3     4   ar
     9     4     5   ar
    10     5     6   ar
    11     6     7    1
    12     6     8   ar
    13     8     9    1
    14     8    10   ar
    15    10    11   ar
    16    11    12   ar
    17    12     1    1
    18     1    20    1
    19    20    21    2
    20    20    22    1
    21    22    23   ar
    22    23    24   ar
    23    24    30    1
    24    30    31    1
    25    30    32    1
    26    30    33    1
    27    24    25   ar
    28    25    26    1
    29    25    27   ar
    30    27    34    1
    31    34    35    1
    32    34    36    1
    33    34    37    1
    34    27    28   ar
    35    12     2   ar
    36    28    22   ar
    37    11     4   ar
    38    13    14    1
    39    26    29    1
@<TRIPOS>MOLECULE
*****
 37 39 0 0 0
SMALL
GASTEIGER

@<TRIPOS>ATOM
      1 C          62.1244   90.2832   10.9200 C.3     1  UNL1        0.1777
      2 C          60.8650   88.6620    9.2081 C.ar    1  UNL1        0.1982
      3 N          60.7250   87.1757    9.0627 N.ar    1  UNL1       -0.2138
      4 C          61.4990   86.5264   10.1714 C.ar    1  UNL1        0.0996
      5 C          61.7205   85.0874   10.5319 C.ar    1  UNL1        0.0161
      6 C          62.5605   84.7334   11.7231 C.ar    1  UNL1       -0.0242
      7 C          62.7821   83.2943   12.0837 C.3     1  UNL1        0.0307
      8 C          63.1790   85.8185   12.5539 C.ar    1  UNL1       -0.0243
      9 C          64.0190   85.4645   13.7452 C.3     1  UNL1        0.0307
     10 C          62.9574   87.2575   12.1934 C.ar    1  UNL1        0.0142
     11 C          62.1174   87.6115   11.0022 C.ar    1  UNL1        0.0799
     12 N          61.7256   88.9314   10.4068 N.ar    1  UNL1       -0.2921
     13 N          60.2521   89.6972    8.3122 N.pl3   1  UNL1       -0.3042
     14 H          60.3899   90.6539    8.4992 H       1  UNL1        0.1496
     15 C          59.4293   89.2748    7.1313 C.3     1  UNL1        0.0921
     16 C          59.4169   90.1131    5.8874 C.3     1  UNL1        0.0533
     17 C          58.1764   90.8624    5.5004 C.3     1  UNL1        0.1440
     18 C          59.5910   92.5006    4.0633 C.3     1  UNL1        0.1741
     19 O          58.2548   91.9761    4.4986 O.3     1  UNL1       -0.3510
     20 C          62.7503   90.4158   12.2766 C.2     1  UNL1        0.1958
     21 O          62.1020   89.7745   13.4677 O.2     1  UNL1       -0.2893
     22 C          64.0246   91.1895   12.4424 C.ar    1  UNL1        0.0362
     23 C          64.7175   91.2175   13.7725 C.ar    1  UNL1        0.0016
     24 C          65.9918   91.9913   13.9382 C.ar    1  UNL1        0.0107
     25 C          66.5732   92.7371   12.7739 C.ar    1  UNL1        0.1255
     26 O          67.8475   93.5109   12.9396 O.3     1  UNL1       -0.5061
     27 C          65.8803   92.7092   11.4438 C.ar    1  UNL1        0.0107
     28 C          64.6060   91.9354   11.2781 C.ar    1  UNL1        0.0016
     29 H          68.2803   93.5284   13.7704 H       1  UNL1        0.2922
     30 C          66.6846   92.0192   15.2683 C.3     1  UNL1        0.0218
     31 C          65.4995   92.7135   15.8711 C.3     1  UNL1        0.0045
     32 C          67.8698   91.3249   14.6655 C.3     1  UNL1        0.0045
     33 C          67.3775   92.0471   16.5984 C.3     1  UNL1        0.0045
     34 C          66.4616   93.4550   10.2795 C.3     1  UNL1        0.0218
     35 C          67.3553   92.2885    9.9784 C.3     1  UNL1        0.0045
     36 C          65.5679   94.6215   10.5804 C.3     1  UNL1        0.0045
     37 C          67.0429   94.2009    9.1150 C.3     1  UNL1        0.0045
@<TRIPOS>BOND
     1    18    19    1
     2    19    17    1
     3    17    16    1
     4    16    15    1
     5    15    13    1
     6    13     2    1
     7     2     3   ar
     8     3     4   ar
     9     4     5   ar
    10     5     6   ar
    11     6     7    1
    12     6     8   ar
    13     8     9    1
    14     8    10   ar
    15    10    11   ar
    16    11    12   ar
    17    12     1    1
    18     1    20    1
    19    20    21    2
    20    20    22    1
    21    22    23   ar
    22    23    24   ar
    23    24    30    1
    24    30    31    1
    25    30    32    1
    26    30    33    1
    27    24    25   ar
    28    25    26    1
    29    25    27   ar
    30    27    34    1
    31    34    35    1
    32    34    36    1
    33    34    37    1
    34    27    28   ar
    35    12     2   ar
    36    28    22   ar
    37    11     4   ar
    38    13    14    1
    39    26    29    1
@<TRIPOS>MOLECULE
*****
 37 39 0 0 0
SMALL
GASTEIGER

@<TRIPOS>ATOM
      1 C          62.0886   89.4730   11.7849 C.3     1  UNL1        0.1777
      2 C          61.2097   87.6764   10.0116 C.ar    1  UNL1        0.1982
      3 N          61.3421   86.1908    9.8524 N.ar    1  UNL1       -0.2138
      4 C          62.1722   85.6748   10.9902 C.ar    1  UNL1        0.0996
      5 C          62.6307   84.2933   11.3523 C.ar    1  UNL1        0.0161
      6 C          63.4699   84.0785   12.5769 C.ar    1  UNL1       -0.0242
      7 C          63.9284   82.6970   12.9391 C.3     1  UNL1        0.0307
      8 C          63.8506   85.2453   13.4393 C.ar    1  UNL1       -0.0243
      9 C          64.6898   85.0305   14.6640 C.3     1  UNL1        0.0307
     10 C          63.3921   86.6268   13.0772 C.ar    1  UNL1        0.0142
     11 C          62.5530   86.8415   11.8526 C.ar    1  UNL1        0.0799
     12 N          61.9580   88.0786   11.2478 N.ar    1  UNL1       -0.2921
     13 N          60.4604   88.5980    9.0955 N.pl3   1  UNL1       -0.3042
     14 H          60.3568   89.5484    9.3304 H       1  UNL1        0.1496
     15 C          59.8692   88.0716    7.8214 C.3     1  UNL1        0.0921
     16 C          58.8883   88.9037    7.0498 C.3     1  UNL1        0.0533
     17 C          59.3764   89.8589    6.0012 C.3     1  UNL1        0.1440
     18 C          59.0096   92.0780    4.7009 C.3     1  UNL1        0.1741
     19 O          58.4524   90.9043    5.4505 O.3     1  UNL1       -0.3510
     20 C          62.7165   90.5448   10.9443 C.2     1  UNL1        0.1958
     21 O          62.1441   90.8734    9.5972 O.2     1  UNL1       -0.2893
     22 C          63.9170   91.2883   11.4505 C.ar    1  UNL1        0.0362
     23 C          64.8360   91.9754   10.4845 C.ar    1  UNL1        0.0016
     24 C          66.0364   92.7188   10.9907 C.ar    1  UNL1        0.0107
     25 C          66.3178   92.7751   12.4630 C.ar    1  UNL1        0.1255
     26 O          67.5183   93.5186   12.9693 O.3     1  UNL1       -0.5061
     27 C          65.3988   92.0880   13.4290 C.ar    1  UNL1        0.0107
     28 C          64.1984   91.3446   12.9228 C.ar    1  UNL1        0.0016
     29 H          68.0924   93.9478   12.3659 H       1  UNL1        0.2922
     30 C          66.9555   93.4059   10.0247 C.3     1  UNL1        0.0218
     31 C          66.1332   94.6559   10.1315 C.3     1  UNL1        0.0045
     32 C          67.7777   92.1559    9.9179 C.3     1  UNL1        0.0045
     33 C          67.8745   94.0930    9.0586 C.3     1  UNL1        0.0045
     34 C          65.6801   92.1443   14.9013 C.3     1  UNL1        0.0218
     35 C          66.3772   93.4597   14.7179 C.3     1  UNL1        0.0045
     36 C          64.9830   90.8288   15.0848 C.3     1  UNL1        0.0045
     37 C          65.9614   92.2005   16.3737 C.3     1  UNL1        0.0045
@<TRIPOS>BOND
     1    18    19    1
     2    19    17    1
     3    17    16    1
     4    16    15    1
     5    15    13    1
     6    13     2    1
     7     2     3   ar
     8     3     4   ar
     9     4     5   ar
    10     5     6   ar
    11     6     7    1
    12     6     8   ar
    13     8     9    1
    14     8    10   ar
    15    10    11   ar
    16    11    12   ar
    17    12     1    1
    18     1    20    1
    19    20    21    2
    20    20    22    1
    21    22    23   ar
    22    23    24   ar
    23    24    30    1
    24    30    31    1
    25    30    32    1
    26    30    33    1
    27    24    25   ar
    28    25    26    1
    29    25    27   ar
    30    27    34    1
    31    34    35    1
    32    34    36    1
    33    34    37    1
    34    27    28   ar
    35    12     2   ar
    36    28    22   ar
    37    11     4   ar
    38    13    14    1
    39    26    29    1
@<TRIPOS>MOLECULE
*****
 37 39 0 0 0
SMALL
GASTEIGER

@<TRIPOS>ATOM
      1 C          62.6877   89.4170   11.2067 C.3     1  UNL1        0.1777
      2 C          61.3674   87.2941   10.2606 C.ar    1  UNL1        0.1982
      3 N          61.3012   85.8394   10.6206 N.ar    1  UNL1       -0.2138
      4 C          62.2141   85.6087   11.7883 C.ar    1  UNL1        0.0996
      5 C          62.5527   84.3735   12.5689 C.ar    1  UNL1        0.0161
      6 C          63.5219   84.4503   13.7111 C.ar    1  UNL1       -0.0242
      7 C          63.8605   83.2150   14.4918 C.3     1  UNL1        0.0307
      8 C          64.1524   85.7624   14.0728 C.ar    1  UNL1       -0.0243
      9 C          65.1216   85.8392   15.2151 C.3     1  UNL1        0.0307
     10 C          63.8138   86.9977   13.2922 C.ar    1  UNL1        0.0142
     11 C          62.8446   86.9209   12.1499 C.ar    1  UNL1        0.0799
     12 N          62.3213   87.9624   11.2058 N.ar    1  UNL1       -0.2921
     13 N          60.6124   87.9629    9.1505 N.pl3   1  UNL1       -0.3042
     14 H          60.9463   88.8053    8.7658 H       1  UNL1        0.1496
     15 C          59.3485   87.3482    8.6264 C.3     1  UNL1        0.0921
     16 C          59.4122   86.3020    7.5533 C.3     1  UNL1        0.0533
     17 C          60.7107   85.6137    7.2530 C.3     1  UNL1        0.1440
     18 C          62.0153   84.2186    5.4919 C.3     1  UNL1        0.1741
     19 O          60.7534   84.4957    6.2539 O.3     1  UNL1       -0.3510
     20 C          62.9471   90.1243   12.5037 C.2     1  UNL1        0.1958
     21 O          62.0046   89.9458   13.6570 O.2     1  UNL1       -0.2893
     22 C          64.1490   91.0102   12.6476 C.ar    1  UNL1        0.0362
     23 C          64.6449   91.7984   11.4717 C.ar    1  UNL1        0.0016
     24 C          65.8467   92.6843   11.6156 C.ar    1  UNL1        0.0107
     25 C          66.5527   92.7821   12.9355 C.ar    1  UNL1        0.1255
     26 O          67.7545   93.6680   13.0795 O.3     1  UNL1       -0.5061
     27 C          66.0567   91.9939   14.1114 C.ar    1  UNL1        0.0107
     28 C          64.8549   91.1080   13.9675 C.ar    1  UNL1        0.0016
     29 H          68.0644   94.1604   12.3450 H       1  UNL1        0.2922
     30 C          66.3426   93.4725   10.4397 C.3     1  UNL1        0.0218
     31 C          67.2517   92.3401   10.0641 C.3     1  UNL1        0.0045
     32 C          65.4335   94.6049   10.8153 C.3     1  UNL1        0.0045
     33 C          66.8385   94.2607    9.2637 C.3     1  UNL1        0.0045
     34 C          66.7626   92.0916   15.4313 C.3     1  UNL1        0.0218
     35 C          65.5182   92.6498   16.0556 C.3     1  UNL1        0.0045
     36 C          68.0072   91.5334   14.8071 C.3     1  UNL1        0.0045
     37 C          67.4686   92.1893   16.7513 C.3     1  UNL1        0.0045
@<TRIPOS>BOND
     1    18    19    1
     2    19    17    1
     3    17    16    1
     4    16    15    1
     5    15    13    1
     6    13     2    1
     7     2     3   ar
     8     3     4   ar
     9     4     5   ar
    10     5     6   ar
    11     6     7    1
    12     6     8   ar
    13     8     9    1
    14     8    10   ar
    15    10    11   ar
    16    11    12   ar
    17    12     1    1
    18     1    20    1
    19    20    21    2
    20    20    22    1
    21    22    23   ar
    22    23    24   ar
    23    24    30    1
    24    30    31    1
    25    30    32    1
    26    30    33    1
    27    24    25   ar
    28    25    26    1
    29    25    27   ar
    30    27    34    1
    31    34    35    1
    32    34    36    1
    33    34    37    1
    34    27    28   ar
    35    12     2   ar
    36    28    22   ar
    37    11     4   ar
    38    13    14    1
    39    26    29    1
