@<TRIPOS>MOLECULE
*****
 39 42 0 0 0
SMALL
GASTEIGER

@<TRIPOS>ATOM
      1 C          60.0516   87.8092    9.2456 C.ar    1  UNL1        0.1470
      2 N          60.2843   89.0954    8.5098 N.ar    1  UNL1       -0.2109
      3 C          59.6047   88.9961    7.1761 C.ar    1  UNL1        0.1686
      4 C          58.9520   87.6484    7.0878 C.ar    1  UNL1        0.1113
      5 N          59.2282   86.9148    8.3667 N.ar    1  UNL1       -0.3363
      6 H          58.9227   86.0060    8.5901 H       1  UNL1        0.1673
      7 N          59.5819   90.0579    6.1170 N.ar    1  UNL1       -0.2565
      8 C          60.8664   90.5426    5.5131 C.ar    1  UNL1        0.0857
      9 C          60.8436   91.6045    4.4539 C.ar    1  UNL1        0.0340
     10 C          59.5361   92.1817    3.9986 C.ar    1  UNL1        0.0569
     11 C          58.2515   91.6969    4.6025 C.ar    1  UNL1        0.0758
     12 C          58.2743   90.6351    5.6617 C.ar    1  UNL1        0.2672
     13 O          56.9897   90.1504    6.2656 O.2     1  UNL1       -0.2665
     14 N          59.5133   93.2435    2.9394 N.am    1  UNL1       -0.2790
     15 C          60.6281   93.3296    1.9395 C.2     1  UNL1        0.2678
     16 O          61.7657   92.3538    1.9988 O.2     1  UNL1       -0.2681
     17 H          58.7666   93.8840    2.9005 H       1  UNL1        0.1552
     18 C          60.6052   94.3915    0.8802 C.ar    1  UNL1        0.1419
     19 C          61.2095   94.2848   -0.4884 C.ar    1  UNL1        0.0607
     20 S          60.9517   95.5739   -1.2107 S.2     1  UNL1       -0.0638
     21 C          60.1881   96.4773   -0.2884 C.ar    1  UNL1        0.1347
     22 N          59.9740   95.7466    1.0039 N.ar    1  UNL1       -0.2317
     23 C          60.5541   87.4757   10.6190 C.3     1  UNL1        0.1566
     24 O          61.0566   87.1423   11.9924 O.3     1  UNL1       -0.3756
     25 H          60.8557   86.2150   12.1939 H       1  UNL1        0.2112
     26 C          61.5041   86.4762   10.0288 C.ar    1  UNL1        0.0084
     27 C          61.9481   86.6148    8.6027 C.ar    1  UNL1       -0.0016
     28 C          62.8982   85.6152    8.0125 C.ar    1  UNL1       -0.0003
     29 C          63.4043   84.4772    8.8483 C.ar    1  UNL1        0.0038
     30 C          62.9603   84.3386   10.2744 C.ar    1  UNL1        0.0712
     31 C          62.0103   85.3381   10.8646 C.ar    1  UNL1        0.0022
     32 C          63.4664   83.2006   11.1103 C.3     1  UNL1        0.4186
     33 F          63.9725   82.0625   11.9462 F       1  UNL1       -0.1659
     34 F          64.5725   82.9682   10.1242 F       1  UNL1       -0.1659
     35 F          62.3602   83.4330   12.0964 F       1  UNL1       -0.1659
     36 C          59.6040   88.4753   11.2092 C.3     1  UNL1        0.0385
     37 C          59.0814   90.9851   11.6308 C.3     1  UNL1        0.0001
     38 C          60.0739   89.8664   11.5159 C.3     1  UNL1        0.0031
     39 C          61.5365   90.1387   11.7078 C.3     1  UNL1        0.0001
@<TRIPOS>BOND
     1    37    38    1
     2    38    39    1
     3    38    36    1
     4    36    23    1
     5    23    24    1
     6    23    26    1
     7    26    27   ar
     8    27    28   ar
     9    28    29   ar
    10    29    30   ar
    11    30    32    1
    12    32    33    1
    13    32    34    1
    14    32    35    1
    15    30    31   ar
    16    23     1    1
    17     1     2   ar
    18     2     3   ar
    19     3     7    1
    20     7     8   ar
    21     8     9   ar
    22     9    10   ar
    23    10    14    1
    24    14    15   am
    25    15    16    2
    26    15    18    1
    27    18    19   ar
    28    19    20   ar
    29    20    21   ar
    30    21    22   ar
    31    10    11   ar
    32    11    12   ar
    33    12    13    2
    34     3     4   ar
    35     4     5   ar
    36    31    26   ar
    37     5     1   ar
    38    12     7   ar
    39    22    18   ar
    40    24    25    1
    41    14    17    1
    42     5     6    1
@<TRIPOS>MOLECULE
*****
 39 42 0 0 0
SMALL
GASTEIGER

@<TRIPOS>ATOM
      1 C          60.5663   87.6523    9.8652 C.ar    1  UNL1        0.1470
      2 N          61.8837   88.2304   10.2898 N.ar    1  UNL1       -0.2109
      3 C          61.6555   89.0423   11.5303 C.ar    1  UNL1        0.1686
      4 C          60.1969   88.9660   11.8724 C.ar    1  UNL1        0.1113
      5 N          59.5238   88.1070   10.8433 N.ar    1  UNL1       -0.3363
      6 H          58.5659   87.8813   10.8148 H       1  UNL1        0.1673
      7 N          62.7019   89.7978   12.2945 N.ar    1  UNL1       -0.2565
      8 C          63.0363   89.4003   13.7016 C.ar    1  UNL1        0.0857
      9 C          64.0828   90.1558   14.4659 C.ar    1  UNL1        0.0340
     10 C          64.7949   91.3088   13.8230 C.ar    1  UNL1        0.0569
     11 C          64.4605   91.7064   12.4158 C.ar    1  UNL1        0.0758
     12 C          63.4140   90.9509   11.6516 C.ar    1  UNL1        0.2672
     13 O          63.0796   91.3484   10.2444 O.2     1  UNL1       -0.2665
     14 N          65.8414   92.0643   14.5872 N.am    1  UNL1       -0.2790
     15 C          67.2189   92.2239   14.0153 C.2     1  UNL1        0.2678
     16 O          67.5498   91.6280   12.6792 O.2     1  UNL1       -0.2681
     17 H          65.6242   92.4555   15.4641 H       1  UNL1        0.1552
     18 C          68.2654   92.9795   14.7795 C.ar    1  UNL1        0.1419
     19 C          68.0116   93.9913   15.8574 C.ar    1  UNL1        0.0607
     20 S          69.3388   94.4929   16.3441 S.2     1  UNL1       -0.0638
     21 C          70.4128   93.7911   15.5670 C.ar    1  UNL1        0.1347
     22 N          69.7495   92.8557   14.6001 N.ar    1  UNL1       -0.2317
     23 C          60.3324   86.7739    8.6721 C.3     1  UNL1        0.1566
     24 O          60.0984   85.8955    7.4789 O.3     1  UNL1       -0.3756
     25 H          60.8881   85.8983    6.9156 H       1  UNL1        0.2112
     26 C          61.4387   85.8669    9.1229 C.ar    1  UNL1        0.0084
     27 C          62.4590   85.3808    8.1366 C.ar    1  UNL1       -0.0016
     28 C          63.5654   84.4738    8.5876 C.ar    1  UNL1       -0.0003
     29 C          63.6515   84.0529   10.0247 C.ar    1  UNL1        0.0038
     30 C          62.6312   84.5391   11.0110 C.ar    1  UNL1        0.0712
     31 C          61.5249   85.4460   10.5601 C.ar    1  UNL1        0.0022
     32 C          62.7173   84.1182   12.4481 C.3     1  UNL1        0.4186
     33 F          62.8034   83.6973   13.8853 F       1  UNL1       -0.1659
     34 F          62.3297   82.7215   12.0623 F       1  UNL1       -0.1659
     35 F          63.1050   85.5149   12.8339 F       1  UNL1       -0.1659
     36 C          59.2259   87.6810    8.2212 C.3     1  UNL1        0.0385
     37 C          59.1666   89.1866    6.1048 C.3     1  UNL1        0.0001
     38 C          59.5497   88.9774    7.5398 C.3     1  UNL1        0.0031
     39 C          60.2566   90.0648    8.2935 C.3     1  UNL1        0.0001
@<TRIPOS>BOND
     1    37    38    1
     2    38    39    1
     3    38    36    1
     4    36    23    1
     5    23    24    1
     6    23    26    1
     7    26    27   ar
     8    27    28   ar
     9    28    29   ar
    10    29    30   ar
    11    30    32    1
    12    32    33    1
    13    32    34    1
    14    32    35    1
    15    30    31   ar
    16    23     1    1
    17     1     2   ar
    18     2     3   ar
    19     3     7    1
    20     7     8   ar
    21     8     9   ar
    22     9    10   ar
    23    10    14    1
    24    14    15   am
    25    15    16    2
    26    15    18    1
    27    18    19   ar
    28    19    20   ar
    29    20    21   ar
    30    21    22   ar
    31    10    11   ar
    32    11    12   ar
    33    12    13    2
    34     3     4   ar
    35     4     5   ar
    36    31    26   ar
    37     5     1   ar
    38    12     7   ar
    39    22    18   ar
    40    24    25    1
    41    14    17    1
    42     5     6    1
@<TRIPOS>MOLECULE
*****
 39 42 0 0 0
SMALL
GASTEIGER

@<TRIPOS>ATOM
      1 C          65.1200   92.3716   12.5437 C.ar    1  UNL1        0.1470
      2 N          64.9864   90.9567   13.0236 N.ar    1  UNL1       -0.2109
      3 C          63.9654   90.2705   12.1652 C.ar    1  UNL1        0.1686
      4 C          63.4679   91.2614   11.1548 C.ar    1  UNL1        0.1113
      5 N          64.1815   92.5599   11.3888 N.ar    1  UNL1       -0.3363
      6 H          64.0559   93.3900   10.8745 H       1  UNL1        0.1673
      7 N          63.5201   88.8440   12.2944 N.ar    1  UNL1       -0.2565
      8 C          62.7168   88.2069   11.1996 C.ar    1  UNL1        0.0857
      9 C          62.2715   86.7804   11.3289 C.ar    1  UNL1        0.0340
     10 C          62.6295   85.9910   12.5530 C.ar    1  UNL1        0.0569
     11 C          63.4328   86.6281   13.6479 C.ar    1  UNL1        0.0758
     12 C          63.8781   88.0546   13.5186 C.ar    1  UNL1        0.2672
     13 O          64.6814   88.6917   14.6136 O.2     1  UNL1       -0.2665
     14 N          62.1842   84.5644   12.6823 N.am    1  UNL1       -0.2790
     15 C          63.1925   83.4844   12.9408 C.2     1  UNL1        0.2678
     16 O          64.6461   83.8310   13.0701 O.2     1  UNL1       -0.2681
     17 H          61.2301   84.3370   12.5974 H       1  UNL1        0.1552
     18 C          62.7471   82.0579   13.0701 C.ar    1  UNL1        0.1419
     19 C          61.8478   81.5083   14.1373 C.ar    1  UNL1        0.0607
     20 S          61.6678   80.0412   13.8816 S.2     1  UNL1       -0.0638
     21 C          62.4559   79.6842   12.6563 C.ar    1  UNL1        0.1347
     22 N          63.1230   80.9306   12.1548 N.ar    1  UNL1       -0.2317
     23 C          66.0318   93.4150   13.1180 C.3     1  UNL1        0.1566
     24 O          66.9436   94.4584   13.6922 O.3     1  UNL1       -0.3756
     25 H          67.8554   94.2797   13.4138 H       1  UNL1        0.2112
     26 C          66.3760   93.8765   11.7329 C.ar    1  UNL1        0.0084
     27 C          65.8238   95.1714   11.2149 C.ar    1  UNL1       -0.0016
     28 C          66.1680   95.6329    9.8297 C.ar    1  UNL1       -0.0003
     29 C          67.0645   94.7995    8.9627 C.ar    1  UNL1        0.0038
     30 C          67.6167   93.5046    9.4807 C.ar    1  UNL1        0.0712
     31 C          67.2725   93.0431   10.8658 C.ar    1  UNL1        0.0022
     32 C          68.5131   92.6712    8.6136 C.3     1  UNL1        0.4186
     33 F          69.4096   91.8377    7.7465 F       1  UNL1       -0.1659
     34 F          68.7078   91.7046    9.7440 F       1  UNL1       -0.1659
     35 F          68.3184   93.6378    7.4833 F       1  UNL1       -0.1659
     36 C          65.6875   92.9535   14.5031 C.3     1  UNL1        0.0385
     37 C          67.8880   91.6090   14.8197 C.3     1  UNL1        0.0001
     38 C          66.7592   92.4083   15.4000 C.3     1  UNL1        0.0031
     39 C          66.7020   92.6626   16.8773 C.3     1  UNL1        0.0001
@<TRIPOS>BOND
     1    37    38    1
     2    38    39    1
     3    38    36    1
     4    36    23    1
     5    23    24    1
     6    23    26    1
     7    26    27   ar
     8    27    28   ar
     9    28    29   ar
    10    29    30   ar
    11    30    32    1
    12    32    33    1
    13    32    34    1
    14    32    35    1
    15    30    31   ar
    16    23     1    1
    17     1     2   ar
    18     2     3   ar
    19     3     7    1
    20     7     8   ar
    21     8     9   ar
    22     9    10   ar
    23    10    14    1
    24    14    15   am
    25    15    16    2
    26    15    18    1
    27    18    19   ar
    28    19    20   ar
    29    20    21   ar
    30    21    22   ar
    31    10    11   ar
    32    11    12   ar
    33    12    13    2
    34     3     4   ar
    35     4     5   ar
    36    31    26   ar
    37     5     1   ar
    38    12     7   ar
    39    22    18   ar
    40    24    25    1
    41    14    17    1
    42     5     6    1
@<TRIPOS>MOLECULE
*****
 39 42 0 0 0
SMALL
GASTEIGER

@<TRIPOS>ATOM
      1 C          60.0546   87.6870    8.2939 C.ar    1  UNL1        0.1470
      2 N          60.5871   88.8538    7.5161 N.ar    1  UNL1       -0.2109
      3 C          59.5184   89.3028    6.5640 C.ar    1  UNL1        0.1686
      4 C          58.3254   88.4133    6.7533 C.ar    1  UNL1        0.1113
      5 N          58.6568   87.4147    7.8224 N.ar    1  UNL1       -0.3363
      6 H          58.0614   86.7052    8.1561 H       1  UNL1        0.1673
      7 N          59.6242   90.4412    5.5930 N.ar    1  UNL1       -0.2565
      8 C          60.9619   90.8323    5.0386 C.ar    1  UNL1        0.0857
      9 C          61.0676   91.9707    4.0677 C.ar    1  UNL1        0.0340
     10 C          59.8357   92.7180    3.6511 C.ar    1  UNL1        0.0569
     11 C          58.4979   92.3269    4.2055 C.ar    1  UNL1        0.0758
     12 C          58.3921   91.1885    5.1764 C.ar    1  UNL1        0.2672
     13 O          57.0543   90.7974    5.7308 O.2     1  UNL1       -0.2665
     14 N          59.9414   93.8564    2.6801 N.am    1  UNL1       -0.2790
     15 C          59.9723   93.5840    1.2054 C.2     1  UNL1        0.2678
     16 O          59.8973   92.1731    0.7017 O.2     1  UNL1       -0.2681
     17 H          59.9906   94.7825    3.0108 H       1  UNL1        0.1552
     18 C          60.0780   94.7225    0.2344 C.ar    1  UNL1        0.1419
     19 C          58.9385   95.5509   -0.2804 C.ar    1  UNL1        0.0607
     20 S          59.4981   96.5728   -1.2252 S.2     1  UNL1       -0.0638
     21 C          60.9835   96.3759   -1.2942 C.ar    1  UNL1        0.1347
     22 N          61.3419   95.2323   -0.3921 N.ar    1  UNL1       -0.2317
     23 C          60.7905   86.9260    9.3565 C.3     1  UNL1        0.1566
     24 O          61.5265   86.1650   10.4191 O.3     1  UNL1       -0.3756
     25 H          62.4225   86.5246   10.5125 H       1  UNL1        0.2112
     26 C          60.8921   88.1751   10.1807 C.ar    1  UNL1        0.0084
     27 C          59.7279   88.6193   11.0158 C.ar    1  UNL1       -0.0016
     28 C          59.8295   89.8685   11.8401 C.ar    1  UNL1       -0.0003
     29 C          61.0952   90.6734   11.8292 C.ar    1  UNL1        0.0038
     30 C          62.2594   90.2291   10.9941 C.ar    1  UNL1        0.0712
     31 C          62.1578   88.9800   10.1699 C.ar    1  UNL1        0.0022
     32 C          63.5251   91.0339   10.9832 C.3     1  UNL1        0.4186
     33 F          64.7909   91.8388   10.9724 F       1  UNL1       -0.1659
     34 F          63.9531   90.3782   12.2626 F       1  UNL1       -0.1659
     35 F          63.0971   91.6897    9.7038 F       1  UNL1       -0.1659
     36 C          60.6889   85.6768    8.5322 C.3     1  UNL1        0.0385
     37 C          61.5921   84.6569    6.3200 C.3     1  UNL1        0.0001
     38 C          61.8431   85.2475    7.6758 C.3     1  UNL1        0.0031
     39 C          63.2484   85.4088    8.1751 C.3     1  UNL1        0.0001
@<TRIPOS>BOND
     1    37    38    1
     2    38    39    1
     3    38    36    1
     4    36    23    1
     5    23    24    1
     6    23    26    1
     7    26    27   ar
     8    27    28   ar
     9    28    29   ar
    10    29    30   ar
    11    30    32    1
    12    32    33    1
    13    32    34    1
    14    32    35    1
    15    30    31   ar
    16    23     1    1
    17     1     2   ar
    18     2     3   ar
    19     3     7    1
    20     7     8   ar
    21     8     9   ar
    22     9    10   ar
    23    10    14    1
    24    14    15   am
    25    15    16    2
    26    15    18    1
    27    18    19   ar
    28    19    20   ar
    29    20    21   ar
    30    21    22   ar
    31    10    11   ar
    32    11    12   ar
    33    12    13    2
    34     3     4   ar
    35     4     5   ar
    36    31    26   ar
    37     5     1   ar
    38    12     7   ar
    39    22    18   ar
    40    24    25    1
    41    14    17    1
    42     5     6    1
@<TRIPOS>MOLECULE
*****
 39 42 0 0 0
SMALL
GASTEIGER

@<TRIPOS>ATOM
      1 C          64.8465   92.1005   11.9476 C.ar    1  UNL1        0.1470
      2 N          65.0071   90.6349   12.2237 N.ar    1  UNL1       -0.2109
      3 C          63.6557   89.9925   12.1180 C.ar    1  UNL1        0.1686
      4 C          62.6599   91.0611   11.7766 C.ar    1  UNL1        0.1113
      5 N          63.3959   92.3639   11.6713 N.ar    1  UNL1       -0.3363
      6 H          62.9968   93.2383   11.4582 H       1  UNL1        0.1673
      7 N          63.3532   88.5370   12.3185 N.ar    1  UNL1       -0.2565
      8 C          63.9138   87.8111   13.5054 C.ar    1  UNL1        0.0857
      9 C          63.6113   86.3557   13.7059 C.ar    1  UNL1        0.0340
     10 C          62.7483   85.6262   12.7196 C.ar    1  UNL1        0.0569
     11 C          62.1877   86.3522   11.5326 C.ar    1  UNL1        0.0758
     12 C          62.4902   87.8076   11.3321 C.ar    1  UNL1        0.2672
     13 O          61.9296   88.5335   10.1452 O.2     1  UNL1       -0.2665
     14 N          62.4458   84.1708   12.9201 N.am    1  UNL1       -0.2790
     15 C          63.2924   83.1295   12.2498 C.2     1  UNL1        0.2678
     16 O          64.4413   83.5438   11.3791 O.2     1  UNL1       -0.2681
     17 H          61.6917   83.8989   13.4916 H       1  UNL1        0.1552
     18 C          62.9899   81.6740   12.4504 C.ar    1  UNL1        0.1419
     19 C          62.6184   81.0215   13.7489 C.ar    1  UNL1        0.0607
     20 S          62.4047   79.5598   13.4886 S.2     1  UNL1       -0.0638
     21 C          62.6441   79.3090   12.0292 C.ar    1  UNL1        0.1347
     22 N          63.0057   80.6157   11.3875 N.ar    1  UNL1       -0.2317
     23 C          65.9439   93.1232   11.9478 C.3     1  UNL1        0.1566
     24 O          67.0412   94.1458   11.9480 O.3     1  UNL1       -0.3756
     25 H          66.7934   94.8859   12.5241 H       1  UNL1        0.2112
     26 C          66.1617   92.8892   13.4133 C.ar    1  UNL1        0.0084
     27 C          65.0798   92.2619   14.2416 C.ar    1  UNL1       -0.0016
     28 C          65.2977   92.0279   15.7072 C.ar    1  UNL1       -0.0003
     29 C          66.5973   92.4212   16.3444 C.ar    1  UNL1        0.0038
     30 C          67.6792   93.0485   15.5161 C.ar    1  UNL1        0.0712
     31 C          67.4614   93.2825   14.0506 C.ar    1  UNL1        0.0022
     32 C          68.9789   93.4418   16.1533 C.3     1  UNL1        0.4186
     33 F          70.2786   93.8351   16.7906 F       1  UNL1       -0.1659
     34 F          69.3185   91.9946   16.3538 F       1  UNL1       -0.1659
     35 F          68.6392   94.8890   15.9528 F       1  UNL1       -0.1659
     36 C          65.7260   93.3572   10.4822 C.3     1  UNL1        0.0385
     37 C          67.1896   94.7412    8.8414 C.3     1  UNL1        0.0001
     38 C          66.0993   94.6744    9.8694 C.3     1  UNL1        0.0031
     39 C          65.3823   95.9248   10.2846 C.3     1  UNL1        0.0001
@<TRIPOS>BOND
     1    37    38    1
     2    38    39    1
     3    38    36    1
     4    36    23    1
     5    23    24    1
     6    23    26    1
     7    26    27   ar
     8    27    28   ar
     9    28    29   ar
    10    29    30   ar
    11    30    32    1
    12    32    33    1
    13    32    34    1
    14    32    35    1
    15    30    31   ar
    16    23     1    1
    17     1     2   ar
    18     2     3   ar
    19     3     7    1
    20     7     8   ar
    21     8     9   ar
    22     9    10   ar
    23    10    14    1
    24    14    15   am
    25    15    16    2
    26    15    18    1
    27    18    19   ar
    28    19    20   ar
    29    20    21   ar
    30    21    22   ar
    31    10    11   ar
    32    11    12   ar
    33    12    13    2
    34     3     4   ar
    35     4     5   ar
    36    31    26   ar
    37     5     1   ar
    38    12     7   ar
    39    22    18   ar
    40    24    25    1
    41    14    17    1
    42     5     6    1
@<TRIPOS>MOLECULE
*****
 39 42 0 0 0
SMALL
GASTEIGER

@<TRIPOS>ATOM
      1 C          64.9137   92.2139   11.7575 C.ar    1  UNL1        0.1470
      2 N          65.0418   90.7760   12.1651 N.ar    1  UNL1       -0.2109
      3 C          63.7196   90.1078   11.9297 C.ar    1  UNL1        0.1686
      4 C          62.7743   91.1328   11.3766 C.ar    1  UNL1        0.1113
      5 N          63.5122   92.4344   11.2702 N.ar    1  UNL1       -0.3363
      6 H          63.1418   93.2842   10.9387 H       1  UNL1        0.1673
      7 N          63.3990   88.6676   12.1999 N.ar    1  UNL1       -0.2565
      8 C          63.9368   87.9975   13.4293 C.ar    1  UNL1        0.0857
      9 C          63.6162   86.5573   13.6995 C.ar    1  UNL1        0.0340
     10 C          62.7578   85.7872   12.7404 C.ar    1  UNL1        0.0569
     11 C          62.2200   86.4574   11.5109 C.ar    1  UNL1        0.0758
     12 C          62.5406   87.8976   11.2407 C.ar    1  UNL1        0.2672
     13 O          62.0027   88.5678   10.0112 O.2     1  UNL1       -0.2665
     14 N          62.4372   84.3471   13.0106 N.am    1  UNL1       -0.2790
     15 C          63.2038   83.2640   12.3110 C.2     1  UNL1        0.2678
     16 O          64.2909   83.6212   11.3412 O.2     1  UNL1       -0.2681
     17 H          61.7237   84.1126   13.6471 H       1  UNL1        0.1552
     18 C          62.8831   81.8237   12.5813 C.ar    1  UNL1        0.1419
     19 C          62.3966   81.2579   13.8824 C.ar    1  UNL1        0.0607
     20 S          62.2055   79.7810   13.7031 S.2     1  UNL1       -0.0638
     21 C          62.5740   79.4341   12.2910 C.ar    1  UNL1        0.1347
     22 N          62.9928   80.6966   11.5977 N.ar    1  UNL1       -0.2317
     23 C          65.9967   93.2494   11.8253 C.3     1  UNL1        0.1566
     24 O          67.0798   94.2849   11.8931 O.3     1  UNL1       -0.3756
     25 H          66.8061   95.0006   12.4880 H       1  UNL1        0.2112
     26 C          66.1767   92.9654   13.2871 C.ar    1  UNL1        0.0084
     27 C          67.4432   93.3729   13.9800 C.ar    1  UNL1       -0.0016
     28 C          67.6231   93.0889   15.4418 C.ar    1  UNL1       -0.0003
     29 C          66.5366   92.3975   16.2108 C.ar    1  UNL1        0.0038
     30 C          65.2702   91.9900   15.5180 C.ar    1  UNL1        0.0712
     31 C          65.0902   92.2740   14.0562 C.ar    1  UNL1        0.0022
     32 C          64.1837   91.2986   16.2870 C.3     1  UNL1        0.4186
     33 F          63.0971   90.6071   17.0560 F       1  UNL1       -0.1659
     34 F          64.4832   92.1557   17.4809 F       1  UNL1       -0.1659
     35 F          63.8841   90.4414   15.0930 F       1  UNL1       -0.1659
     36 C          65.8167   93.5333   10.3634 C.3     1  UNL1        0.0385
     37 C          67.4587   94.9817    8.9648 C.3     1  UNL1        0.0001
     38 C          66.2201   94.8649    9.8028 C.3     1  UNL1        0.0031
     39 C          65.3849   96.0796   10.0803 C.3     1  UNL1        0.0001
@<TRIPOS>BOND
     1    37    38    1
     2    38    39    1
     3    38    36    1
     4    36    23    1
     5    23    24    1
     6    23    26    1
     7    26    27   ar
     8    27    28   ar
     9    28    29   ar
    10    29    30   ar
    11    30    32    1
    12    32    33    1
    13    32    34    1
    14    32    35    1
    15    30    31   ar
    16    23     1    1
    17     1     2   ar
    18     2     3   ar
    19     3     7    1
    20     7     8   ar
    21     8     9   ar
    22     9    10   ar
    23    10    14    1
    24    14    15   am
    25    15    16    2
    26    15    18    1
    27    18    19   ar
    28    19    20   ar
    29    20    21   ar
    30    21    22   ar
    31    10    11   ar
    32    11    12   ar
    33    12    13    2
    34     3     4   ar
    35     4     5   ar
    36    31    26   ar
    37     5     1   ar
    38    12     7   ar
    39    22    18   ar
    40    24    25    1
    41    14    17    1
    42     5     6    1
@<TRIPOS>MOLECULE
*****
 39 42 0 0 0
SMALL
GASTEIGER

@<TRIPOS>ATOM
      1 C          59.9806   89.3221    8.9866 C.ar    1  UNL1        0.1470
      2 N          61.4314   89.5886    9.2588 N.ar    1  UNL1       -0.2109
      3 C          61.5254   90.4022   10.5156 C.ar    1  UNL1        0.1686
      4 C          60.1326   90.6384   11.0201 C.ar    1  UNL1        0.1113
      5 N          59.1779   89.9709   10.0752 N.ar    1  UNL1       -0.3363
      6 H          58.1968   89.9604   10.1553 H       1  UNL1        0.1673
      7 N          62.7901   90.8932   11.1555 N.ar    1  UNL1       -0.2565
      8 C          63.7227   91.7826   10.3880 C.ar    1  UNL1        0.0857
      9 C          64.9873   92.2737   11.0279 C.ar    1  UNL1        0.0340
     10 C          65.3194   91.8754   12.4353 C.ar    1  UNL1        0.0569
     11 C          64.3868   90.9860   13.2029 C.ar    1  UNL1        0.0758
     12 C          63.1221   90.4949   12.5630 C.ar    1  UNL1        0.2672
     13 O          62.1895   89.6055   13.3306 O.2     1  UNL1       -0.2665
     14 N          66.5840   92.3664   13.0752 N.am    1  UNL1       -0.2790
     15 C          66.5898   92.7545   14.5241 C.2     1  UNL1        0.2678
     16 O          65.3309   92.6515   15.3331 O.2     1  UNL1       -0.2681
     17 H          67.4103   92.4340   12.5442 H       1  UNL1        0.1552
     18 C          67.8545   93.2456   15.1640 C.ar    1  UNL1        0.1419
     19 C          69.1952   92.5764   15.0947 C.ar    1  UNL1        0.0607
     20 S          70.1698   93.4093   15.8734 S.2     1  UNL1       -0.0638
     21 C          69.4315   94.5933   16.4240 C.ar    1  UNL1        0.1347
     22 N          68.0005   94.4921   15.9855 N.ar    1  UNL1       -0.2317
     23 C          59.4293   88.5435    7.8292 C.3     1  UNL1        0.1566
     24 O          58.8779   87.7648    6.6717 O.3     1  UNL1       -0.3756
     25 H          59.5984   87.5348    6.0643 H       1  UNL1        0.2112
     26 C          60.2503   87.3562    8.2367 C.ar    1  UNL1        0.0084
     27 C          60.4355   87.0357    9.6903 C.ar    1  UNL1       -0.0016
     28 C          61.2566   85.8483   10.0979 C.ar    1  UNL1       -0.0003
     29 C          61.8925   84.9815    9.0519 C.ar    1  UNL1        0.0038
     30 C          61.7073   85.3020    7.5982 C.ar    1  UNL1        0.0712
     31 C          60.8863   86.4893    7.1907 C.ar    1  UNL1        0.0022
     32 C          62.3433   84.4352    6.5522 C.3     1  UNL1        0.4186
     33 F          62.9792   83.5684    5.5061 F       1  UNL1       -0.1659
     34 F          60.9986   84.1982    5.9312 F       1  UNL1       -0.1659
     35 F          63.6879   84.6723    7.1732 F       1  UNL1       -0.1659
     36 C          58.6082   89.7308    7.4216 C.3     1  UNL1        0.0385
     37 C          60.2280   90.4296    5.5143 C.3     1  UNL1        0.0001
     38 C          58.8449   90.3860    6.0932 C.3     1  UNL1        0.0031
     39 C          57.6985   90.9978    5.3437 C.3     1  UNL1        0.0001
@<TRIPOS>BOND
     1    37    38    1
     2    38    39    1
     3    38    36    1
     4    36    23    1
     5    23    24    1
     6    23    26    1
     7    26    27   ar
     8    27    28   ar
     9    28    29   ar
    10    29    30   ar
    11    30    32    1
    12    32    33    1
    13    32    34    1
    14    32    35    1
    15    30    31   ar
    16    23     1    1
    17     1     2   ar
    18     2     3   ar
    19     3     7    1
    20     7     8   ar
    21     8     9   ar
    22     9    10   ar
    23    10    14    1
    24    14    15   am
    25    15    16    2
    26    15    18    1
    27    18    19   ar
    28    19    20   ar
    29    20    21   ar
    30    21    22   ar
    31    10    11   ar
    32    11    12   ar
    33    12    13    2
    34     3     4   ar
    35     4     5   ar
    36    31    26   ar
    37     5     1   ar
    38    12     7   ar
    39    22    18   ar
    40    24    25    1
    41    14    17    1
    42     5     6    1
