@<TRIPOS>MOLECULE
*****
 34 37 0 0 0
SMALL
GASTEIGER

@<TRIPOS>ATOM
      1 C          60.1243   89.4947    9.5575 C.3     1  UNL1        0.0899
      2 C          60.5999   89.5717   10.9780 C.2     1  UNL1        0.2260
      3 O          59.7837   88.9577   12.0766 O.2     1  UNL1       -0.2749
      4 N          61.8917   90.2627   11.2999 N.am    1  UNL1       -0.2794
      5 C          62.7078   90.8767   10.2013 C.3     1  UNL1        0.0951
      6 C          63.9997   91.5678   10.5232 C.3     1  UNL1        0.0410
      7 C          64.4754   91.6449   11.9437 C.3     1  UNL1        0.0724
      8 C          63.6592   91.0308   13.0423 C.3     1  UNL1        0.0410
      9 C          62.3674   90.3398   12.7204 C.3     1  UNL1        0.0951
     10 N          65.7672   92.3359   12.2657 N.pl3   1  UNL1       -0.3339
     11 H          66.1104   92.3329   13.1884 H       1  UNL1        0.1468
     12 C          66.5360   93.0316   11.1817 C.ar    1  UNL1        0.0469
     13 C          66.3339   94.4985   10.9420 C.ar    1  UNL1        0.0144
     14 C          67.1027   95.1942    9.8581 C.ar    1  UNL1        0.0036
     15 C          68.0736   94.4231    9.0139 C.ar    1  UNL1        0.0297
     16 C          68.2757   92.9562    9.2537 C.ar    1  UNL1        0.1414
     17 F          69.2467   92.1851    8.4094 F       1  UNL1       -0.2041
     18 C          67.5069   92.2605   10.3375 C.ar    1  UNL1        0.0439
     19 C          60.2416   88.2076    8.7960 C.3     1  UNL1        0.0359
     20 C          62.7925   84.8670   10.4033 C.ar    1  UNL1       -0.0062
     21 C          61.8316   85.5792   11.3087 C.ar    1  UNL1       -0.0032
     22 C          60.9813   86.6927   10.7729 C.ar    1  UNL1       -0.0045
     23 C          61.0919   87.0941    9.3318 C.ar    1  UNL1       -0.0217
     24 C          62.0528   86.3819    8.4265 C.ar    1  UNL1       -0.0045
     25 C          62.9031   85.2684    8.9623 C.ar    1  UNL1       -0.0032
     26 C          63.6428   83.7535   10.9391 C.3     1  UNL1        0.0992
     27 C          61.0081   80.5924   14.1117 C.3     1  UNL1        0.0186
     28 C          62.0708   81.6296   13.9002 C.3     1  UNL1        0.0703
     29 C          62.3255   82.1729   12.5255 C.3     1  UNL1        0.0882
     30 N          63.3882   83.2102   12.3139 N.3     1  UNL1       -0.2666
     31 C          64.1961   83.7042   13.4771 C.3     1  UNL1        0.0897
     32 C          63.9414   83.1609   14.8519 C.3     1  UNL1        0.0861
     33 N          62.8787   82.1236   15.0634 N.3     1  UNL1       -0.2963
     34 H          62.2184   82.5117   15.7370 H       1  UNL1        0.1233
@<TRIPOS>BOND
     1    28    27    1
     2    28    29    1
     3    29    30    1
     4    30    26    1
     5    26    20    1
     6    20    21   ar
     7    21    22   ar
     8    22    23   ar
     9    23    19    1
    10    19     1    1
    11     1     2    1
    12     2     3    2
    13     2     4   am
    14     4     5    1
    15     5     6    1
    16     6     7    1
    17     7    10    1
    18    10    12    1
    19    12    13   ar
    20    13    14   ar
    21    14    15   ar
    22    15    16   ar
    23    16    17    1
    24    16    18   ar
    25     7     8    1
    26     8     9    1
    27    23    24   ar
    28    24    25   ar
    29    30    31    1
    30    31    32    1
    31    32    33    1
    32    33    28    1
    33    25    20   ar
    34     9     4    1
    35    18    12   ar
    36    10    11    1
    37    33    34    1
@<TRIPOS>MOLECULE
*****
 34 37 0 0 0
SMALL
GASTEIGER

@<TRIPOS>ATOM
      1 C          62.8539   84.2393   15.6615 C.3     1  UNL1        0.0899
      2 C          63.3733   83.4407   14.5028 C.2     1  UNL1        0.2260
      3 O          64.0888   82.1448   14.7457 O.2     1  UNL1       -0.2749
      4 N          63.1771   83.9378   13.1013 N.am    1  UNL1       -0.2794
      5 C          62.4616   85.2335   12.8584 C.3     1  UNL1        0.0951
      6 C          62.2653   85.7307   11.4568 C.3     1  UNL1        0.0410
      7 C          62.7847   84.9321   10.2982 C.3     1  UNL1        0.0724
      8 C          63.5002   83.6363   10.5411 C.3     1  UNL1        0.0410
      9 C          63.6964   83.1392   11.9426 C.3     1  UNL1        0.0951
     10 N          62.5885   85.4293    8.8966 N.pl3   1  UNL1       -0.3339
     11 H          63.2125   85.1565    8.1857 H       1  UNL1        0.1468
     12 C          61.4415   86.3421    8.5783 C.ar    1  UNL1        0.0469
     13 C          60.3303   85.8682    7.6892 C.ar    1  UNL1        0.0144
     14 C          59.1834   86.7810    7.3708 C.ar    1  UNL1        0.0036
     15 C          59.1477   88.1677    7.9415 C.ar    1  UNL1        0.0297
     16 C          60.2590   88.6416    8.8306 C.ar    1  UNL1        0.1414
     17 F          60.2233   90.0284    9.4013 F       1  UNL1       -0.2041
     18 C          61.4059   87.7288    9.1490 C.ar    1  UNL1        0.0439
     19 C          63.7663   85.1773   16.3948 C.3     1  UNL1        0.0359
     20 C          63.7158   89.5737   15.4361 C.ar    1  UNL1       -0.0062
     21 C          64.3933   88.6111   14.5063 C.ar    1  UNL1       -0.0032
     22 C          64.4101   87.1456   14.8259 C.ar    1  UNL1       -0.0045
     23 C          63.7495   86.6428   16.0752 C.ar    1  UNL1       -0.0217
     24 C          63.0720   87.6054   17.0049 C.ar    1  UNL1       -0.0045
     25 C          63.0552   89.0709   16.6853 C.ar    1  UNL1       -0.0032
     26 C          63.6990   91.0392   15.1165 C.3     1  UNL1        0.0992
     27 C          68.2809   93.3912   15.8050 C.3     1  UNL1        0.0186
     28 C          67.2116   92.8724   14.8900 C.3     1  UNL1        0.0703
     29 C          65.9900   92.2152   15.4607 C.3     1  UNL1        0.0882
     30 N          64.9206   91.6964   14.5456 N.3     1  UNL1       -0.2666
     31 C          65.0729   91.8348   13.0599 C.3     1  UNL1        0.0897
     32 C          66.2944   92.4919   12.4891 C.3     1  UNL1        0.0861
     33 N          67.3638   93.0108   13.4042 N.3     1  UNL1       -0.2963
     34 H          67.4598   94.0074   13.2096 H       1  UNL1        0.1233
@<TRIPOS>BOND
     1    28    27    1
     2    28    29    1
     3    29    30    1
     4    30    26    1
     5    26    20    1
     6    20    21   ar
     7    21    22   ar
     8    22    23   ar
     9    23    19    1
    10    19     1    1
    11     1     2    1
    12     2     3    2
    13     2     4   am
    14     4     5    1
    15     5     6    1
    16     6     7    1
    17     7    10    1
    18    10    12    1
    19    12    13   ar
    20    13    14   ar
    21    14    15   ar
    22    15    16   ar
    23    16    17    1
    24    16    18   ar
    25     7     8    1
    26     8     9    1
    27    23    24   ar
    28    24    25   ar
    29    30    31    1
    30    31    32    1
    31    32    33    1
    32    33    28    1
    33    25    20   ar
    34     9     4    1
    35    18    12   ar
    36    10    11    1
    37    33    34    1
@<TRIPOS>MOLECULE
*****
 34 37 0 0 0
SMALL
GASTEIGER

@<TRIPOS>ATOM
      1 C          62.7213   84.1098   15.6844 C.3     1  UNL1        0.0899
      2 C          63.3009   83.3536   14.5258 C.2     1  UNL1        0.2260
      3 O          64.0512   82.0767   14.7636 O.2     1  UNL1       -0.2749
      4 N          63.1302   83.8744   13.1296 N.am    1  UNL1       -0.2794
      5 C          62.3799   85.1513   12.8918 C.3     1  UNL1        0.0951
      6 C          62.2091   85.6721   11.4955 C.3     1  UNL1        0.0410
      7 C          62.7887   84.9159   10.3369 C.3     1  UNL1        0.0724
      8 C          63.5390   83.6389   10.5747 C.3     1  UNL1        0.0410
      9 C          63.7098   83.1182   11.9710 C.3     1  UNL1        0.0951
     10 N          62.6180   85.4366    8.9406 N.pl3   1  UNL1       -0.3339
     11 H          63.2630   85.1871    8.2399 H       1  UNL1        0.1468
     12 C          61.4645   86.3375    8.6119 C.ar    1  UNL1        0.0469
     13 C          60.3745   85.8579    7.6998 C.ar    1  UNL1        0.0144
     14 C          59.2211   86.7586    7.3711 C.ar    1  UNL1        0.0036
     15 C          59.1576   88.1391    7.9544 C.ar    1  UNL1        0.0297
     16 C          60.2476   88.6187    8.8665 C.ar    1  UNL1        0.1414
     17 F          60.1841   89.9992    9.4499 F       1  UNL1       -0.2041
     18 C          61.4010   87.7179    9.1953 C.ar    1  UNL1        0.0439
     19 C          63.5929   85.0212   16.4966 C.3     1  UNL1        0.0359
     20 C          63.7671   89.4140   15.5358 C.ar    1  UNL1       -0.0062
     21 C          63.0557   88.9438   16.7700 C.ar    1  UNL1       -0.0032
     22 C          62.9977   87.4796   17.0902 C.ar    1  UNL1       -0.0045
     23 C          63.6510   86.4855   16.1764 C.ar    1  UNL1       -0.0217
     24 C          64.3623   86.9557   14.9423 C.ar    1  UNL1       -0.0045
     25 C          64.4204   88.4199   14.6221 C.ar    1  UNL1       -0.0032
     26 C          63.8252   90.8782   15.2156 C.3     1  UNL1        0.0992
     27 C          63.1740   91.2323   10.0725 C.3     1  UNL1        0.0186
     28 C          63.9886   91.5104   11.3010 C.3     1  UNL1        0.0703
     29 C          63.4996   91.0553   12.6440 C.3     1  UNL1        0.0882
     30 N          64.3142   91.3334   13.8725 N.3     1  UNL1       -0.2666
     31 C          65.6177   92.0666   13.7580 C.3     1  UNL1        0.0897
     32 C          66.1067   92.5218   12.4149 C.3     1  UNL1        0.0861
     33 N          65.2921   92.2436   11.1865 N.3     1  UNL1       -0.2963
     34 H          65.8827   91.6980   10.5589 H       1  UNL1        0.1233
@<TRIPOS>BOND
     1    28    27    1
     2    28    29    1
     3    29    30    1
     4    30    26    1
     5    26    20    1
     6    20    21   ar
     7    21    22   ar
     8    22    23   ar
     9    23    19    1
    10    19     1    1
    11     1     2    1
    12     2     3    2
    13     2     4   am
    14     4     5    1
    15     5     6    1
    16     6     7    1
    17     7    10    1
    18    10    12    1
    19    12    13   ar
    20    13    14   ar
    21    14    15   ar
    22    15    16   ar
    23    16    17    1
    24    16    18   ar
    25     7     8    1
    26     8     9    1
    27    23    24   ar
    28    24    25   ar
    29    30    31    1
    30    31    32    1
    31    32    33    1
    32    33    28    1
    33    25    20   ar
    34     9     4    1
    35    18    12   ar
    36    10    11    1
    37    33    34    1
@<TRIPOS>MOLECULE
*****
 34 37 0 0 0
SMALL
GASTEIGER

@<TRIPOS>ATOM
      1 C          65.0242   91.1550   14.9314 C.3     1  UNL1        0.0899
      2 C          65.1148   91.5635   13.4910 C.2     1  UNL1        0.2260
      3 O          66.3028   92.3398   13.0048 O.2     1  UNL1       -0.2749
      4 N          64.0176   91.1958   12.5366 N.am    1  UNL1       -0.2794
      5 C          62.8297   90.4195   13.0228 C.3     1  UNL1        0.0951
      6 C          61.7324   90.0517   12.0684 C.3     1  UNL1        0.0410
      7 C          61.8231   90.4602   10.6279 C.3     1  UNL1        0.0724
      8 C          63.0110   91.2365   10.1418 C.3     1  UNL1        0.0410
      9 C          64.1082   91.6042   11.0962 C.3     1  UNL1        0.0951
     10 N          60.7258   90.0924    9.6736 N.pl3   1  UNL1       -0.3339
     11 H          60.0479   90.7605    9.4220 H       1  UNL1        0.1468
     12 C          60.6615   88.7068    9.1027 C.ar    1  UNL1        0.0469
     13 C          59.5207   88.3153    8.2109 C.ar    1  UNL1        0.0144
     14 C          59.4563   86.9297    7.6400 C.ar    1  UNL1        0.0036
     15 C          60.5328   85.9356    7.9609 C.ar    1  UNL1        0.0297
     16 C          61.6736   86.3271    8.8526 C.ar    1  UNL1        0.1414
     17 F          62.7500   85.3329    9.1735 F       1  UNL1       -0.2041
     18 C          61.7379   87.7127    9.4236 C.ar    1  UNL1        0.0439
     19 C          63.8127   90.4236   15.4288 C.3     1  UNL1        0.0359
     20 C          63.8591   85.9335   15.7239 C.ar    1  UNL1       -0.0062
     21 C          63.1629   86.7470   16.7745 C.ar    1  UNL1       -0.0032
     22 C          63.1474   88.2437   16.6761 C.ar    1  UNL1       -0.0045
     23 C          63.8281   88.9269   15.5271 C.ar    1  UNL1       -0.0217
     24 C          64.5243   88.1133   14.4767 C.ar    1  UNL1       -0.0045
     25 C          64.5398   86.6167   14.5751 C.ar    1  UNL1       -0.0032
     26 C          63.8745   84.4368   15.8223 C.3     1  UNL1        0.0992
     27 C          64.4938   83.0881   10.8426 C.3     1  UNL1        0.0186
     28 C          63.7803   82.9291   12.1524 C.3     1  UNL1        0.0703
     29 C          64.1841   83.7624   13.3324 C.3     1  UNL1        0.0882
     30 N          63.4707   83.6034   14.6423 N.3     1  UNL1       -0.2666
     31 C          62.3534   82.6110   14.7721 C.3     1  UNL1        0.0897
     32 C          61.9497   81.7777   13.5921 C.3     1  UNL1        0.0861
     33 N          62.6631   81.9367   12.2823 N.3     1  UNL1       -0.2963
     34 H          61.9578   82.1954   11.5924 H       1  UNL1        0.1233
@<TRIPOS>BOND
     1    28    27    1
     2    28    29    1
     3    29    30    1
     4    30    26    1
     5    26    20    1
     6    20    21   ar
     7    21    22   ar
     8    22    23   ar
     9    23    19    1
    10    19     1    1
    11     1     2    1
    12     2     3    2
    13     2     4   am
    14     4     5    1
    15     5     6    1
    16     6     7    1
    17     7    10    1
    18    10    12    1
    19    12    13   ar
    20    13    14   ar
    21    14    15   ar
    22    15    16   ar
    23    16    17    1
    24    16    18   ar
    25     7     8    1
    26     8     9    1
    27    23    24   ar
    28    24    25   ar
    29    30    31    1
    30    31    32    1
    31    32    33    1
    32    33    28    1
    33    25    20   ar
    34     9     4    1
    35    18    12   ar
    36    10    11    1
    37    33    34    1
@<TRIPOS>MOLECULE
*****
 34 37 0 0 0
SMALL
GASTEIGER

@<TRIPOS>ATOM
      1 C          60.4595   89.6979    9.7620 C.3     1  UNL1        0.0899
      2 C          60.9693   89.8408   11.1654 C.2     1  UNL1        0.2260
      3 O          60.2016   89.2425   12.3069 O.2     1  UNL1       -0.2749
      4 N          62.2468   90.5819   11.4275 N.am    1  UNL1       -0.2794
      5 C          63.0145   91.1801   10.2861 C.3     1  UNL1        0.0951
      6 C          64.2921   91.9212   10.5482 C.3     1  UNL1        0.0410
      7 C          64.8019   92.0641   11.9516 C.3     1  UNL1        0.0724
      8 C          64.0342   91.4659   13.0930 C.3     1  UNL1        0.0410
      9 C          62.7567   90.7248   12.8310 C.3     1  UNL1        0.0951
     10 N          66.0794   92.8052   12.2137 N.pl3   1  UNL1       -0.3339
     11 H          66.4533   93.4006   11.5245 H       1  UNL1        0.1468
     12 C          66.7872   92.6392   13.5258 C.ar    1  UNL1        0.0469
     13 C          66.9263   91.2758   14.1356 C.ar    1  UNL1        0.0144
     14 C          67.6340   91.1097   15.4476 C.ar    1  UNL1        0.0036
     15 C          68.2028   92.3070   16.1498 C.ar    1  UNL1        0.0297
     16 C          68.0637   93.6703   15.5399 C.ar    1  UNL1        0.1414
     17 F          68.6325   94.8676   16.2421 F       1  UNL1       -0.2041
     18 C          67.3560   93.8364   14.2279 C.ar    1  UNL1        0.0439
     19 C          60.1486   88.3374    9.2118 C.3     1  UNL1        0.0359
     20 C          62.8292   84.8540   10.1765 C.ar    1  UNL1       -0.0062
     21 C          62.8808   85.4862    8.8171 C.ar    1  UNL1       -0.0032
     22 C          61.9873   86.6473    8.4956 C.ar    1  UNL1       -0.0045
     23 C          61.0422   87.1763    9.5334 C.ar    1  UNL1       -0.0217
     24 C          60.9906   86.5441   10.8927 C.ar    1  UNL1       -0.0045
     25 C          61.8841   85.3830   11.2142 C.ar    1  UNL1       -0.0032
     26 C          63.7227   83.6929   10.4981 C.3     1  UNL1        0.0992
     27 C          62.0982   79.7941   13.5247 C.3     1  UNL1        0.0186
     28 C          62.8352   81.0901   13.3595 C.3     1  UNL1        0.0703
     29 C          62.9105   81.7435   12.0114 C.3     1  UNL1        0.0882
     30 N          63.6475   83.0395   11.8462 N.3     1  UNL1       -0.2666
     31 C          64.3092   83.6820   13.0291 C.3     1  UNL1        0.0897
     32 C          64.2340   83.0286   14.3771 C.3     1  UNL1        0.0861
     33 N          63.4970   81.7326   14.5423 N.3     1  UNL1       -0.2963
     34 H          62.7668   81.8954   15.2358 H       1  UNL1        0.1233
@<TRIPOS>BOND
     1    28    27    1
     2    28    29    1
     3    29    30    1
     4    30    26    1
     5    26    20    1
     6    20    21   ar
     7    21    22   ar
     8    22    23   ar
     9    23    19    1
    10    19     1    1
    11     1     2    1
    12     2     3    2
    13     2     4   am
    14     4     5    1
    15     5     6    1
    16     6     7    1
    17     7    10    1
    18    10    12    1
    19    12    13   ar
    20    13    14   ar
    21    14    15   ar
    22    15    16   ar
    23    16    17    1
    24    16    18   ar
    25     7     8    1
    26     8     9    1
    27    23    24   ar
    28    24    25   ar
    29    30    31    1
    30    31    32    1
    31    32    33    1
    32    33    28    1
    33    25    20   ar
    34     9     4    1
    35    18    12   ar
    36    10    11    1
    37    33    34    1
@<TRIPOS>MOLECULE
*****
 34 37 0 0 0
SMALL
GASTEIGER

@<TRIPOS>ATOM
      1 C          59.7969   88.8470   10.3873 C.3     1  UNL1        0.0899
      2 C          60.4550   88.1326    9.2442 C.2     1  UNL1        0.2260
      3 O          60.2476   88.6150    7.8391 O.2     1  UNL1       -0.2749
      4 N          61.3203   86.9358    9.5062 N.am    1  UNL1       -0.2794
      5 C          61.5277   86.4534   10.9113 C.3     1  UNL1        0.0951
      6 C          62.3931   85.2565   11.1734 C.3     1  UNL1        0.0410
      7 C          63.0511   84.5421   10.0303 C.3     1  UNL1        0.0724
      8 C          62.8438   85.0245    8.6252 C.3     1  UNL1        0.0410
      9 C          61.9784   86.2213    8.3632 C.3     1  UNL1        0.0951
     10 N          63.9165   83.3452   10.2923 N.pl3   1  UNL1       -0.3339
     11 H          64.6413   83.1154    9.6669 H       1  UNL1        0.1468
     12 C          63.6777   82.4985   11.5073 C.ar    1  UNL1        0.0469
     13 C          62.9916   81.1714   11.3735 C.ar    1  UNL1        0.0144
     14 C          62.7527   80.3247   12.5883 C.ar    1  UNL1        0.0036
     15 C          63.2000   80.8051   13.9370 C.ar    1  UNL1        0.0297
     16 C          63.8861   82.1322   14.0709 C.ar    1  UNL1        0.1414
     17 F          64.3334   82.6126   15.4197 F       1  UNL1       -0.2041
     18 C          64.1250   82.9789   12.8560 C.ar    1  UNL1        0.0439
     19 C          60.1250   90.2848   10.6618 C.3     1  UNL1        0.0359
     20 C          64.3391   91.4719   11.7022 C.ar    1  UNL1       -0.0062
     21 C          63.4447   90.8830   12.7526 C.ar    1  UNL1       -0.0032
     22 C          62.0401   90.4873   12.4058 C.ar    1  UNL1       -0.0045
     23 C          61.5297   90.6805   11.0086 C.ar    1  UNL1       -0.0217
     24 C          62.4241   91.2693    9.9582 C.ar    1  UNL1       -0.0045
     25 C          63.8287   91.6650   10.3050 C.ar    1  UNL1       -0.0032
     26 C          65.7438   91.8676   12.0490 C.3     1  UNL1        0.0992
     27 C          66.6013   96.7921   10.6297 C.3     1  UNL1        0.0186
     28 C          66.9015   95.3290   10.4906 C.3     1  UNL1        0.0703
     29 C          66.1726   94.3298   11.3393 C.3     1  UNL1        0.0882
     30 N          66.4727   92.8668   11.2002 N.3     1  UNL1       -0.2666
     31 C          67.5018   92.4029   10.2124 C.3     1  UNL1        0.0897
     32 C          68.2307   93.4020    9.3637 C.3     1  UNL1        0.0861
     33 N          67.9305   94.8651    9.5028 N.3     1  UNL1       -0.2963
     34 H          67.6266   95.1918    8.5856 H       1  UNL1        0.1233
@<TRIPOS>BOND
     1    28    27    1
     2    28    29    1
     3    29    30    1
     4    30    26    1
     5    26    20    1
     6    20    21   ar
     7    21    22   ar
     8    22    23   ar
     9    23    19    1
    10    19     1    1
    11     1     2    1
    12     2     3    2
    13     2     4   am
    14     4     5    1
    15     5     6    1
    16     6     7    1
    17     7    10    1
    18    10    12    1
    19    12    13   ar
    20    13    14   ar
    21    14    15   ar
    22    15    16   ar
    23    16    17    1
    24    16    18   ar
    25     7     8    1
    26     8     9    1
    27    23    24   ar
    28    24    25   ar
    29    30    31    1
    30    31    32    1
    31    32    33    1
    32    33    28    1
    33    25    20   ar
    34     9     4    1
    35    18    12   ar
    36    10    11    1
    37    33    34    1
@<TRIPOS>MOLECULE
*****
 34 37 0 0 0
SMALL
GASTEIGER

@<TRIPOS>ATOM
      1 C          63.3946   82.8533   14.7112 C.3     1  UNL1        0.0899
      2 C          63.7337   82.6867   13.2595 C.2     1  UNL1        0.2260
      3 O          64.5409   81.5055   12.8087 O.2     1  UNL1       -0.2749
      4 N          63.2655   83.7012   12.2588 N.am    1  UNL1       -0.2794
      5 C          62.4583   84.8824   12.7097 C.3     1  UNL1        0.0951
      6 C          61.9901   85.8970   11.7089 C.3     1  UNL1        0.0410
      7 C          62.3292   85.7304   10.2572 C.3     1  UNL1        0.0724
      8 C          63.1365   84.5492    9.8064 C.3     1  UNL1        0.0410
      9 C          63.6046   83.5346   10.8071 C.3     1  UNL1        0.0951
     10 N          61.8611   86.7449    9.2565 N.pl3   1  UNL1       -0.3339
     11 H          61.8091   86.5075    8.3024 H       1  UNL1        0.1468
     12 C          61.4722   88.1211    9.7093 C.ar    1  UNL1        0.0469
     13 C          60.0949   88.3722   10.2476 C.ar    1  UNL1        0.0144
     14 C          59.7060   89.7483   10.7004 C.ar    1  UNL1        0.0036
     15 C          60.6944   90.8732   10.6149 C.ar    1  UNL1        0.0297
     16 C          62.0718   90.6221   10.0767 C.ar    1  UNL1        0.1414
     17 F          63.0603   91.7471    9.9912 F       1  UNL1       -0.2041
     18 C          62.4607   89.2460    9.6238 C.ar    1  UNL1        0.0439
     19 C          64.2744   83.6858   15.5961 C.3     1  UNL1        0.0359
     20 C          63.5795   88.1193   15.9301 C.ar    1  UNL1       -0.0062
     21 C          62.9258   87.1823   16.9022 C.ar    1  UNL1       -0.0032
     22 C          63.1574   85.7045   16.7909 C.ar    1  UNL1       -0.0045
     23 C          64.0427   85.1636   15.7075 C.ar    1  UNL1       -0.0217
     24 C          64.6964   86.1005   14.7355 C.ar    1  UNL1       -0.0045
     25 C          64.4648   87.5784   14.8468 C.ar    1  UNL1       -0.0032
     26 C          63.3479   89.5971   16.0415 C.3     1  UNL1        0.0992
     27 C          66.9647   93.2201   15.1511 C.3     1  UNL1        0.0186
     28 C          65.8486   92.3492   14.6551 C.3     1  UNL1        0.0703
     29 C          65.1563   91.4086   15.5963 C.3     1  UNL1        0.0882
     30 N          64.0402   90.5378   15.1002 N.3     1  UNL1       -0.2666
     31 C          63.6164   90.6076   13.6631 C.3     1  UNL1        0.0897
     32 C          64.3088   91.5482   12.7219 C.3     1  UNL1        0.0861
     33 N          65.4248   92.4190   13.2179 N.3     1  UNL1       -0.2963
     34 H          65.1469   93.3841   13.0394 H       1  UNL1        0.1233
@<TRIPOS>BOND
     1    28    27    1
     2    28    29    1
     3    29    30    1
     4    30    26    1
     5    26    20    1
     6    20    21   ar
     7    21    22   ar
     8    22    23   ar
     9    23    19    1
    10    19     1    1
    11     1     2    1
    12     2     3    2
    13     2     4   am
    14     4     5    1
    15     5     6    1
    16     6     7    1
    17     7    10    1
    18    10    12    1
    19    12    13   ar
    20    13    14   ar
    21    14    15   ar
    22    15    16   ar
    23    16    17    1
    24    16    18   ar
    25     7     8    1
    26     8     9    1
    27    23    24   ar
    28    24    25   ar
    29    30    31    1
    30    31    32    1
    31    32    33    1
    32    33    28    1
    33    25    20   ar
    34     9     4    1
    35    18    12   ar
    36    10    11    1
    37    33    34    1
@<TRIPOS>MOLECULE
*****
 34 37 0 0 0
SMALL
GASTEIGER

@<TRIPOS>ATOM
      1 C          59.5302   88.9305   10.3149 C.3     1  UNL1        0.0899
      2 C          60.2184   88.2250    9.1841 C.2     1  UNL1        0.2260
      3 O          59.9907   88.6735    7.7709 O.2     1  UNL1       -0.2749
      4 N          61.1341   87.0710    9.4665 N.am    1  UNL1       -0.2794
      5 C          61.3617   86.6225   10.8796 C.3     1  UNL1        0.0951
      6 C          62.2774   85.4685   11.1620 C.3     1  UNL1        0.0410
      7 C          62.9655   84.7630   10.0312 C.3     1  UNL1        0.0724
      8 C          62.7379   85.2115    8.6180 C.3     1  UNL1        0.0410
      9 C          61.8222   86.3655    8.3356 C.3     1  UNL1        0.0951
     10 N          63.8812   83.6090   10.3136 N.pl3   1  UNL1       -0.3339
     11 H          64.6292   83.4135    9.7039 H       1  UNL1        0.1468
     12 C          63.6574   82.7528   11.5248 C.ar    1  UNL1        0.0469
     13 C          62.9877   81.4178   11.3862 C.ar    1  UNL1        0.0144
     14 C          62.7639   80.5617   12.5973 C.ar    1  UNL1        0.0036
     15 C          63.2098   81.0406   13.9470 C.ar    1  UNL1        0.0297
     16 C          63.8795   82.3756   14.0856 C.ar    1  UNL1        0.1414
     17 F          64.3255   82.8544   15.4355 F       1  UNL1       -0.2041
     18 C          64.1034   83.2317   12.8745 C.ar    1  UNL1        0.0439
     19 C          59.9802   90.3003   10.7290 C.3     1  UNL1        0.0359
     20 C          64.1886   90.9408   12.1879 C.ar    1  UNL1       -0.0062
     21 C          63.2059   90.1917   13.0383 C.ar    1  UNL1       -0.0032
     22 C          61.8031   89.9782   12.5520 C.ar    1  UNL1       -0.0045
     23 C          61.3830   90.5138   11.2153 C.ar    1  UNL1       -0.0217
     24 C          62.3657   91.2628   10.3649 C.ar    1  UNL1       -0.0045
     25 C          63.7685   91.4763   10.8512 C.ar    1  UNL1       -0.0032
     26 C          65.5915   91.1544   12.6742 C.3     1  UNL1        0.0992
     27 C          68.6061   93.8921   15.9016 C.3     1  UNL1        0.0186
     28 C          67.3403   93.1320   15.6374 C.3     1  UNL1        0.0703
     29 C          67.0988   92.5233   14.2879 C.3     1  UNL1        0.0882
     30 N          65.8329   91.7631   14.0237 N.3     1  UNL1       -0.2666
     31 C          64.8086   91.6117   15.1089 C.3     1  UNL1        0.0897
     32 C          65.0501   92.2204   16.4584 C.3     1  UNL1        0.0861
     33 N          66.3159   92.9806   16.7226 N.3     1  UNL1       -0.2963
     34 H          66.7804   92.5167   17.5033 H       1  UNL1        0.1233
@<TRIPOS>BOND
     1    28    27    1
     2    28    29    1
     3    29    30    1
     4    30    26    1
     5    26    20    1
     6    20    21   ar
     7    21    22   ar
     8    22    23   ar
     9    23    19    1
    10    19     1    1
    11     1     2    1
    12     2     3    2
    13     2     4   am
    14     4     5    1
    15     5     6    1
    16     6     7    1
    17     7    10    1
    18    10    12    1
    19    12    13   ar
    20    13    14   ar
    21    14    15   ar
    22    15    16   ar
    23    16    17    1
    24    16    18   ar
    25     7     8    1
    26     8     9    1
    27    23    24   ar
    28    24    25   ar
    29    30    31    1
    30    31    32    1
    31    32    33    1
    32    33    28    1
    33    25    20   ar
    34     9     4    1
    35    18    12   ar
    36    10    11    1
    37    33    34    1
@<TRIPOS>MOLECULE
*****
 34 37 0 0 0
SMALL
GASTEIGER

@<TRIPOS>ATOM
      1 C          63.6806   82.6217   14.2982 C.3     1  UNL1        0.0899
      2 C          64.0114   82.6666   12.8358 C.2     1  UNL1        0.2260
      3 O          64.9740   81.6742   12.2538 O.2     1  UNL1       -0.2749
      4 N          63.3798   83.7039   11.9554 N.am    1  UNL1       -0.2794
      5 C          62.4173   84.6962   12.5374 C.3     1  UNL1        0.0951
      6 C          61.7856   85.7336   11.6570 C.3     1  UNL1        0.0410
      7 C          62.1165   85.7785   10.1947 C.3     1  UNL1        0.0724
      8 C          63.0790   84.7860    9.6127 C.3     1  UNL1        0.0410
      9 C          63.7107   83.7488   10.4931 C.3     1  UNL1        0.0951
     10 N          61.4848   86.8157    9.3143 N.pl3   1  UNL1       -0.3339
     11 H          61.4898   86.7007    8.3366 H       1  UNL1        0.1468
     12 C          60.8456   88.0283    9.9236 C.ar    1  UNL1        0.0469
     13 C          61.0687   89.3803    9.3134 C.ar    1  UNL1        0.0144
     14 C          60.4295   90.5928    9.9227 C.ar    1  UNL1        0.0036
     15 C          59.5673   90.4533   11.1421 C.ar    1  UNL1        0.0297
     16 C          59.3443   89.1013   11.7523 C.ar    1  UNL1        0.1414
     17 F          58.4820   88.9618   12.9718 F       1  UNL1       -0.2041
     18 C          59.9834   87.8888   11.1431 C.ar    1  UNL1        0.0439
     19 C          64.4890   83.4232   15.2750 C.3     1  UNL1        0.0359
     20 C          63.6484   87.8094   15.8272 C.ar    1  UNL1       -0.0062
     21 C          63.0096   86.8028   16.7377 C.ar    1  UNL1       -0.0032
     22 C          63.2899   85.3408   16.5537 C.ar    1  UNL1       -0.0045
     23 C          64.2088   84.8853   15.4591 C.ar    1  UNL1       -0.0217
     24 C          64.8475   85.8917   14.5486 C.ar    1  UNL1       -0.0045
     25 C          64.5672   87.3538   14.7326 C.ar    1  UNL1       -0.0032
     26 C          63.3681   89.2714   16.0112 C.3     1  UNL1        0.0992
     27 C          63.6816   91.2572   11.2197 C.3     1  UNL1        0.0186
     28 C          64.1031   91.2650   12.6592 C.3     1  UNL1        0.0703
     29 C          63.5249   90.2644   13.6155 C.3     1  UNL1        0.0882
     30 N          63.9464   90.2721   15.0550 N.3     1  UNL1       -0.2666
     31 C          64.9462   91.2804   15.5383 C.3     1  UNL1        0.0897
     32 C          65.5244   92.2810   14.5821 C.3     1  UNL1        0.0861
     33 N          65.1029   92.2733   13.1426 N.3     1  UNL1       -0.2963
     34 H          65.9487   92.1381   12.5888 H       1  UNL1        0.1233
@<TRIPOS>BOND
     1    28    27    1
     2    28    29    1
     3    29    30    1
     4    30    26    1
     5    26    20    1
     6    20    21   ar
     7    21    22   ar
     8    22    23   ar
     9    23    19    1
    10    19     1    1
    11     1     2    1
    12     2     3    2
    13     2     4   am
    14     4     5    1
    15     5     6    1
    16     6     7    1
    17     7    10    1
    18    10    12    1
    19    12    13   ar
    20    13    14   ar
    21    14    15   ar
    22    15    16   ar
    23    16    17    1
    24    16    18   ar
    25     7     8    1
    26     8     9    1
    27    23    24   ar
    28    24    25   ar
    29    30    31    1
    30    31    32    1
    31    32    33    1
    32    33    28    1
    33    25    20   ar
    34     9     4    1
    35    18    12   ar
    36    10    11    1
    37    33    34    1
