@<TRIPOS>MOLECULE
*****
 23 25 0 0 0
SMALL
GASTEIGER

@<TRIPOS>ATOM
      1 C          64.6339   91.6346   12.2354 C.2     1  UNL1       -0.0420
      2 C          63.6688   90.8763   13.0977 C.2     1  UNL1       -0.0240
      3 C          62.5665   90.3632   12.2193 C.ar    1  UNL1       -0.0078
      4 C          61.3411   89.5512   12.5175 C.ar    1  UNL1       -0.0006
      5 C          60.3994   89.1804   11.4103 C.ar    1  UNL1       -0.0000
      6 C          60.6832   89.6216   10.0051 C.ar    1  UNL1       -0.0003
      7 C          61.9087   90.4335    9.7069 C.ar    1  UNL1       -0.0040
      8 C          62.8503   90.8043   10.8140 C.ar    1  UNL1       -0.0184
      9 C          64.1280   91.5901   10.8240 C.3     1  UNL1        0.0480
     10 C          65.8851   92.3175   12.7025 C.3     1  UNL1        0.0394
     11 C          66.1649   93.7329   12.2923 C.3     1  UNL1        0.0766
     12 C          66.8777   95.4093   10.4398 C.3     1  UNL1        0.0897
     13 N          66.8544   94.0141   10.9902 N.3     1  UNL1       -0.2688
     14 C          67.5207   92.9001   10.2385 C.3     1  UNL1        0.1107
     15 C          68.3097   93.1990    8.9983 C.3     1  UNL1        0.2105
     16 F          69.0737   92.1048    8.3135 F       1  UNL1       -0.2328
     17 C          63.7855   90.6678   14.5786 C.3     1  UNL1        0.0730
     18 C          63.7195   89.2817   15.1483 C.ar    1  UNL1        0.0825
     19 C          63.0770   89.0495   16.4837 C.ar    1  UNL1        0.1139
     20 N          63.0110   87.6635   17.0534 N.ar    1  UNL1       -0.2394
     21 C          63.5876   86.5097   16.2877 C.ar    1  UNL1        0.1195
     22 C          64.2301   86.7419   14.9524 C.ar    1  UNL1        0.1191
     23 N          64.2961   88.1278   14.3826 N.ar    1  UNL1       -0.2446
@<TRIPOS>BOND
     1    12    13    1
     2    13    14    1
     3    14    15    1
     4    15    16    1
     5    13    11    1
     6    11    10    1
     7    10     1    1
     8     1     2    2
     9     2    17    1
    10    17    18    1
    11    18    19   ar
    12    19    20   ar
    13    20    21   ar
    14    21    22   ar
    15    22    23   ar
    16     2     3    1
    17     3     4   ar
    18     4     5   ar
    19     5     6   ar
    20     6     7   ar
    21     7     8   ar
    22     8     9    1
    23     9     1    1
    24    23    18   ar
    25     8     3   ar
@<TRIPOS>MOLECULE
*****
 23 25 0 0 0
SMALL
GASTEIGER

@<TRIPOS>ATOM
      1 C          63.9244   89.7946   13.5029 C.2     1  UNL1       -0.0420
      2 C          63.8782   88.2991   13.6088 C.2     1  UNL1       -0.0240
      3 C          63.1550   87.7713   12.4052 C.ar    1  UNL1       -0.0078
      4 C          62.8097   86.3770   11.9733 C.ar    1  UNL1       -0.0006
      5 C          62.0635   86.1521   10.6916 C.ar    1  UNL1       -0.0000
      6 C          61.6627   87.3215    9.8420 C.ar    1  UNL1       -0.0003
      7 C          62.0081   88.7157   10.2740 C.ar    1  UNL1       -0.0040
      8 C          62.7542   88.9407   11.5556 C.ar    1  UNL1       -0.0184
      9 C          63.2297   90.1911   12.2340 C.3     1  UNL1        0.0480
     10 C          64.5546   90.7295   14.4923 C.3     1  UNL1        0.0394
     11 C          65.9603   91.2085   14.2814 C.3     1  UNL1        0.0766
     12 C          65.8630   92.8597   12.2779 C.3     1  UNL1        0.0897
     13 N          66.2100   92.5721   13.7087 N.3     1  UNL1       -0.2688
     14 C          66.8066   93.6482   14.5666 C.3     1  UNL1        0.1107
     15 C          67.8107   93.2945   15.6233 C.3     1  UNL1        0.2105
     16 F          68.7993   94.3205   16.0921 F       1  UNL1       -0.2328
     17 C          64.4542   87.4758   14.7225 C.3     1  UNL1        0.0730
     18 C          64.1058   86.0213   14.8376 C.ar    1  UNL1        0.0825
     19 C          65.0116   84.9838   14.2432 C.ar    1  UNL1        0.1139
     20 N          64.6634   83.5294   14.3582 N.ar    1  UNL1       -0.2394
     21 C          63.4093   83.1124   15.0677 C.ar    1  UNL1        0.1195
     22 C          62.5035   84.1498   15.6622 C.ar    1  UNL1        0.1191
     23 N          62.8518   85.6042   15.5471 N.ar    1  UNL1       -0.2446
@<TRIPOS>BOND
     1    12    13    1
     2    13    14    1
     3    14    15    1
     4    15    16    1
     5    13    11    1
     6    11    10    1
     7    10     1    1
     8     1     2    2
     9     2    17    1
    10    17    18    1
    11    18    19   ar
    12    19    20   ar
    13    20    21   ar
    14    21    22   ar
    15    22    23   ar
    16     2     3    1
    17     3     4   ar
    18     4     5   ar
    19     5     6   ar
    20     6     7   ar
    21     7     8   ar
    22     8     9    1
    23     9     1    1
    24    23    18   ar
    25     8     3   ar
@<TRIPOS>MOLECULE
*****
 23 25 0 0 0
SMALL
GASTEIGER

@<TRIPOS>ATOM
      1 C          63.2676   88.2197   12.6508 C.2     1  UNL1       -0.0420
      2 C          62.5609   89.2379   11.8058 C.2     1  UNL1       -0.0240
      3 C          61.8382   88.5106   10.7109 C.ar    1  UNL1       -0.0078
      4 C          60.9769   88.9951    9.5825 C.ar    1  UNL1       -0.0006
      5 C          60.3758   88.0120    8.6223 C.ar    1  UNL1       -0.0000
      6 C          60.6359   86.5443    8.7905 C.ar    1  UNL1       -0.0003
      7 C          61.4972   86.0598    9.9190 C.ar    1  UNL1       -0.0040
      8 C          62.0983   87.0429   10.8792 C.ar    1  UNL1       -0.0184
      9 C          62.9817   86.8632   12.0780 C.3     1  UNL1        0.0480
     10 C          64.1120   88.5076   13.8567 C.3     1  UNL1        0.0394
     11 C          64.4454   87.4064   14.8190 C.3     1  UNL1        0.0766
     12 C          63.0906   88.3485   16.8257 C.3     1  UNL1        0.0897
     13 N          63.5848   87.1794   16.0264 N.3     1  UNL1       -0.2688
     14 C          63.2185   85.7832   16.4345 C.3     1  UNL1        0.1107
     15 C          63.3380   84.6582   15.4496 C.3     1  UNL1        0.2105
     16 F          62.3069   84.4909   14.3733 F       1  UNL1       -0.2328
     17 C          62.5744   90.7227   12.0185 C.3     1  UNL1        0.0730
     18 C          63.8700   91.4767   11.9619 C.ar    1  UNL1        0.0825
     19 C          64.4478   91.8765   10.6367 C.ar    1  UNL1        0.1139
     20 N          65.7433   92.6304   10.5801 N.ar    1  UNL1       -0.2394
     21 C          66.4609   92.9846   11.8488 C.ar    1  UNL1        0.1195
     22 C          65.8831   92.5848   13.1740 C.ar    1  UNL1        0.1191
     23 N          64.5876   91.8309   13.2306 N.ar    1  UNL1       -0.2446
@<TRIPOS>BOND
     1    12    13    1
     2    13    14    1
     3    14    15    1
     4    15    16    1
     5    13    11    1
     6    11    10    1
     7    10     1    1
     8     1     2    2
     9     2    17    1
    10    17    18    1
    11    18    19   ar
    12    19    20   ar
    13    20    21   ar
    14    21    22   ar
    15    22    23   ar
    16     2     3    1
    17     3     4   ar
    18     4     5   ar
    19     5     6   ar
    20     6     7   ar
    21     7     8   ar
    22     8     9    1
    23     9     1    1
    24    23    18   ar
    25     8     3   ar
@<TRIPOS>MOLECULE
*****
 23 25 0 0 0
SMALL
GASTEIGER

@<TRIPOS>ATOM
      1 C          62.3495   87.0288   11.4493 C.2     1  UNL1       -0.0420
      2 C          61.6333   88.2976   11.0926 C.2     1  UNL1       -0.0240
      3 C          60.8973   88.0685    9.8058 C.ar    1  UNL1       -0.0078
      4 C          60.0230   88.9619    8.9768 C.ar    1  UNL1       -0.0006
      5 C          59.4100   88.4449    7.7091 C.ar    1  UNL1       -0.0000
      6 C          59.6714   87.0344    7.2705 C.ar    1  UNL1       -0.0003
      7 C          60.5458   86.1410    8.0995 C.ar    1  UNL1       -0.0040
      8 C          61.1587   86.6580    9.3671 C.ar    1  UNL1       -0.0184
      9 C          62.0562   86.0155   10.3829 C.3     1  UNL1        0.0480
     10 C          63.2082   86.8115   12.6598 C.3     1  UNL1        0.0394
     11 C          63.4698   85.4196   13.1537 C.3     1  UNL1        0.0766
     12 C          62.2583   83.9969   14.9588 C.3     1  UNL1        0.0897
     13 N          63.2324   85.0781   14.5949 N.3     1  UNL1       -0.2688
     14 C          63.9689   85.8177   15.6721 C.3     1  UNL1        0.1107
     15 C          63.2366   86.2894   16.8932 C.3     1  UNL1        0.2105
     16 F          63.2190   87.7485   17.2403 F       1  UNL1       -0.2328
     17 C          61.6500   89.5718   11.8838 C.3     1  UNL1        0.0730
     18 C          62.8466   90.4746   11.8266 C.ar    1  UNL1        0.0825
     19 C          63.2381   91.1197   10.5302 C.ar    1  UNL1        0.1139
     20 N          64.4347   92.0224   10.4728 N.ar    1  UNL1       -0.2394
     21 C          65.2398   92.2800   11.7120 C.ar    1  UNL1        0.1195
     22 C          64.8483   91.6350   13.0084 C.ar    1  UNL1        0.1191
     23 N          63.6517   90.7323   13.0657 N.ar    1  UNL1       -0.2446
@<TRIPOS>BOND
     1    12    13    1
     2    13    14    1
     3    14    15    1
     4    15    16    1
     5    13    11    1
     6    11    10    1
     7    10     1    1
     8     1     2    2
     9     2    17    1
    10    17    18    1
    11    18    19   ar
    12    19    20   ar
    13    20    21   ar
    14    21    22   ar
    15    22    23   ar
    16     2     3    1
    17     3     4   ar
    18     4     5   ar
    19     5     6   ar
    20     6     7   ar
    21     7     8   ar
    22     8     9    1
    23     9     1    1
    24    23    18   ar
    25     8     3   ar
@<TRIPOS>MOLECULE
*****
 23 25 0 0 0
SMALL
GASTEIGER

@<TRIPOS>ATOM
      1 C          62.1888   86.4883   11.1775 C.2     1  UNL1       -0.0420
      2 C          61.5370   87.8252   10.9829 C.2     1  UNL1       -0.0240
      3 C          60.7872   87.7908    9.6841 C.ar    1  UNL1       -0.0078
      4 C          59.9573   88.8207    8.9767 C.ar    1  UNL1       -0.0006
      5 C          59.3158   88.4924    7.6612 C.ar    1  UNL1       -0.0000
      6 C          59.5042   87.1342    7.0531 C.ar    1  UNL1       -0.0003
      7 C          60.3341   86.1043    7.7606 C.ar    1  UNL1       -0.0040
      8 C          60.9756   86.4326    9.0761 C.ar    1  UNL1       -0.0184
      9 C          61.8418   85.6276    9.9990 C.3     1  UNL1        0.0480
     10 C          63.0383   86.0832   12.3454 C.3     1  UNL1        0.0394
     11 C          62.8567   84.7327   12.9723 C.3     1  UNL1        0.0766
     12 C          65.0416   84.3424   14.3229 C.3     1  UNL1        0.0897
     13 N          64.0536   83.8864   13.2904 N.3     1  UNL1       -0.2688
     14 C          64.2626   82.5841   12.5760 C.3     1  UNL1        0.1107
     15 C          63.9798   82.4810   11.1065 C.3     1  UNL1        0.2105
     16 F          64.4921   83.5334   10.1685 F       1  UNL1       -0.2328
     17 C          61.6203   88.9918   11.9221 C.3     1  UNL1        0.0730
     18 C          62.6825   90.0338   11.7315 C.ar    1  UNL1        0.0825
     19 C          63.5999   90.3857   12.8648 C.ar    1  UNL1        0.1139
     20 N          64.6620   91.4276   12.6743 N.ar    1  UNL1       -0.2394
     21 C          64.8067   92.1176   11.3503 C.ar    1  UNL1        0.1195
     22 C          63.8894   91.7656   10.2169 C.ar    1  UNL1        0.1191
     23 N          62.8272   90.7238   10.4074 N.ar    1  UNL1       -0.2446
@<TRIPOS>BOND
     1    12    13    1
     2    13    14    1
     3    14    15    1
     4    15    16    1
     5    13    11    1
     6    11    10    1
     7    10     1    1
     8     1     2    2
     9     2    17    1
    10    17    18    1
    11    18    19   ar
    12    19    20   ar
    13    20    21   ar
    14    21    22   ar
    15    22    23   ar
    16     2     3    1
    17     3     4   ar
    18     4     5   ar
    19     5     6   ar
    20     6     7   ar
    21     7     8   ar
    22     8     9    1
    23     9     1    1
    24    23    18   ar
    25     8     3   ar
@<TRIPOS>MOLECULE
*****
 23 25 0 0 0
SMALL
GASTEIGER

@<TRIPOS>ATOM
      1 C          63.7197   90.6667   13.2240 C.2     1  UNL1       -0.0420
      2 C          64.0378   90.6970   14.6896 C.2     1  UNL1       -0.0240
      3 C          65.2042   91.6182   14.8918 C.ar    1  UNL1       -0.0078
      4 C          65.9516   92.0359   16.1235 C.ar    1  UNL1       -0.0006
      5 C          67.1017   92.9925   16.0145 C.ar    1  UNL1       -0.0000
      6 C          67.5046   93.5315   14.6739 C.ar    1  UNL1       -0.0003
      7 C          66.7572   93.1138   13.4423 C.ar    1  UNL1       -0.0040
      8 C          65.6071   92.1572   13.5512 C.ar    1  UNL1       -0.0184
      9 C          64.6896   91.5691   12.5205 C.3     1  UNL1        0.0480
     10 C          62.6242   89.8732   12.5758 C.3     1  UNL1        0.0394
     11 C          62.1909   90.1966   11.1767 C.3     1  UNL1        0.0766
     12 C          60.2525   89.5276    9.5813 C.3     1  UNL1        0.0897
     13 N          61.4865   89.1609   10.3514 N.3     1  UNL1       -0.2688
     14 C          62.0160   87.7586   10.2961 C.3     1  UNL1        0.1107
     15 C          61.1640   86.6162   10.7640 C.3     1  UNL1        0.2105
     16 F          61.6508   85.7184   11.8626 F       1  UNL1       -0.2328
     17 C          63.3162   89.9392   15.7643 C.3     1  UNL1        0.0730
     18 C          63.4974   88.4552   15.8865 C.ar    1  UNL1        0.0825
     19 C          62.9424   87.7271   17.0746 C.ar    1  UNL1        0.1139
     20 N          63.1236   86.2431   17.1968 N.ar    1  UNL1       -0.2394
     21 C          63.8600   85.4872   16.1308 C.ar    1  UNL1        0.1195
     22 C          64.4150   86.2153   14.9426 C.ar    1  UNL1        0.1191
     23 N          64.2338   87.6993   14.8204 N.ar    1  UNL1       -0.2446
@<TRIPOS>BOND
     1    12    13    1
     2    13    14    1
     3    14    15    1
     4    15    16    1
     5    13    11    1
     6    11    10    1
     7    10     1    1
     8     1     2    2
     9     2    17    1
    10    17    18    1
    11    18    19   ar
    12    19    20   ar
    13    20    21   ar
    14    21    22   ar
    15    22    23   ar
    16     2     3    1
    17     3     4   ar
    18     4     5   ar
    19     5     6   ar
    20     6     7   ar
    21     7     8   ar
    22     8     9    1
    23     9     1    1
    24    23    18   ar
    25     8     3   ar
@<TRIPOS>MOLECULE
*****
 23 25 0 0 0
SMALL
GASTEIGER

@<TRIPOS>ATOM
      1 C          62.7671   85.7015   11.9210 C.2     1  UNL1       -0.0420
      2 C          63.5774   85.1928   13.0762 C.2     1  UNL1       -0.0240
      3 C          63.4939   83.6952   13.0773 C.ar    1  UNL1       -0.0078
      4 C          64.0913   82.6572   13.9805 C.ar    1  UNL1       -0.0006
      5 C          63.8268   81.2024   13.7290 C.ar    1  UNL1       -0.0000
      6 C          62.9648   80.7854   12.5744 C.ar    1  UNL1       -0.0003
      7 C          62.3674   81.8233   11.6712 C.ar    1  UNL1       -0.0040
      8 C          62.6319   83.2782   11.9227 C.ar    1  UNL1       -0.0184
      9 C          62.1828   84.5182   11.2081 C.3     1  UNL1        0.0480
     10 C          62.5749   87.1408   11.5447 C.3     1  UNL1        0.0394
     11 C          61.7659   87.4976   10.3330 C.3     1  UNL1        0.0766
     12 C          60.7480   89.5297   11.5918 C.3     1  UNL1        0.0897
     13 N          60.9389   88.7490   10.3253 N.3     1  UNL1       -0.2688
     14 C          60.3027   89.2196    9.0511 C.3     1  UNL1        0.1107
     15 C          59.6631   88.2306    8.1222 C.3     1  UNL1        0.2105
     16 F          58.9461   87.0356    8.6771 F       1  UNL1       -0.2328
     17 C          64.3378   86.0341   14.0581 C.3     1  UNL1        0.0730
     18 C          63.7088   86.4135   15.3660 C.ar    1  UNL1        0.0825
     19 C          63.1345   85.3528   16.2577 C.ar    1  UNL1        0.1139
     20 N          62.5055   85.7321   17.5655 N.ar    1  UNL1       -0.2394
     21 C          62.4509   87.1722   17.9816 C.ar    1  UNL1        0.1195
     22 C          63.0252   88.2329   17.0900 C.ar    1  UNL1        0.1191
     23 N          63.6542   87.8536   15.7822 N.ar    1  UNL1       -0.2446
@<TRIPOS>BOND
     1    12    13    1
     2    13    14    1
     3    14    15    1
     4    15    16    1
     5    13    11    1
     6    11    10    1
     7    10     1    1
     8     1     2    2
     9     2    17    1
    10    17    18    1
    11    18    19   ar
    12    19    20   ar
    13    20    21   ar
    14    21    22   ar
    15    22    23   ar
    16     2     3    1
    17     3     4   ar
    18     4     5   ar
    19     5     6   ar
    20     6     7   ar
    21     7     8   ar
    22     8     9    1
    23     9     1    1
    24    23    18   ar
    25     8     3   ar
@<TRIPOS>MOLECULE
*****
 23 25 0 0 0
SMALL
GASTEIGER

@<TRIPOS>ATOM
      1 C          62.9369   85.8159   12.1951 C.2     1  UNL1       -0.0420
      2 C          63.7937   85.1959   13.2589 C.2     1  UNL1       -0.0240
      3 C          63.6036   83.7092   13.1992 C.ar    1  UNL1       -0.0078
      4 C          64.1918   82.5890   14.0049 C.ar    1  UNL1       -0.0006
      5 C          63.8058   81.1699   13.7098 C.ar    1  UNL1       -0.0000
      6 C          62.8316   80.8710   12.6091 C.ar    1  UNL1       -0.0003
      7 C          62.2434   81.9912   11.8035 C.ar    1  UNL1       -0.0040
      8 C          62.6294   83.4103   12.0985 C.ar    1  UNL1       -0.0184
      9 C          62.2174   84.7123   11.4779 C.3     1  UNL1        0.0480
     10 C          62.8202   87.2820   11.9003 C.3     1  UNL1        0.0394
     11 C          62.3713   87.7409   10.5446 C.3     1  UNL1        0.0766
     12 C          59.9752   88.3651   11.3316 C.3     1  UNL1        0.0897
     13 N          60.9086   87.9005   10.2531 N.3     1  UNL1       -0.2688
     14 C          60.3792   87.5955    8.8832 C.3     1  UNL1        0.1107
     15 C          60.5393   86.2202    8.3063 C.3     1  UNL1        0.2105
     16 F          61.9107   85.6708    8.0468 F       1  UNL1       -0.2328
     17 C          64.6841   85.9333   14.2146 C.3     1  UNL1        0.0730
     18 C          64.1239   87.0366   15.0625 C.ar    1  UNL1        0.0825
     19 C          64.2920   88.4661   14.6403 C.ar    1  UNL1        0.1139
     20 N          63.7318   89.5694   15.4881 N.ar    1  UNL1       -0.2394
     21 C          63.0035   89.2432   16.7582 C.ar    1  UNL1        0.1195
     22 C          62.8355   87.8138   17.1804 C.ar    1  UNL1        0.1191
     23 N          63.3956   86.7104   16.3326 N.ar    1  UNL1       -0.2446
@<TRIPOS>BOND
     1    12    13    1
     2    13    14    1
     3    14    15    1
     4    15    16    1
     5    13    11    1
     6    11    10    1
     7    10     1    1
     8     1     2    2
     9     2    17    1
    10    17    18    1
    11    18    19   ar
    12    19    20   ar
    13    20    21   ar
    14    21    22   ar
    15    22    23   ar
    16     2     3    1
    17     3     4   ar
    18     4     5   ar
    19     5     6   ar
    20     6     7   ar
    21     7     8   ar
    22     8     9    1
    23     9     1    1
    24    23    18   ar
    25     8     3   ar
@<TRIPOS>MOLECULE
*****
 23 25 0 0 0
SMALL
GASTEIGER

@<TRIPOS>ATOM
      1 C          62.8757   85.8543   11.9976 C.2     1  UNL1       -0.0420
      2 C          63.6581   85.2850   13.1439 C.2     1  UNL1       -0.0240
      3 C          63.5342   83.7910   13.0931 C.ar    1  UNL1       -0.0078
      4 C          64.0926   82.7073   13.9670 C.ar    1  UNL1       -0.0006
      5 C          63.7920   81.2695   13.6632 C.ar    1  UNL1       -0.0000
      6 C          62.9331   80.9154   12.4856 C.ar    1  UNL1       -0.0003
      7 C          62.3748   81.9991   11.6116 C.ar    1  UNL1       -0.0040
      8 C          62.6753   83.4369   11.9154 C.ar    1  UNL1       -0.0184
      9 C          62.2684   84.7121   11.2384 C.3     1  UNL1        0.0480
     10 C          62.7269   87.3101   11.6684 C.3     1  UNL1        0.0394
     11 C          61.4251   87.8288   11.1336 C.3     1  UNL1        0.0766
     12 C          59.9879   89.9775   10.8723 C.3     1  UNL1        0.0897
     13 N          61.3012   89.2673   10.7268 N.3     1  UNL1       -0.2688
     14 C          62.4905   89.9956   10.1744 C.3     1  UNL1        0.1107
     15 C          63.1459   91.0795   10.9779 C.3     1  UNL1        0.2105
     16 F          64.1655   91.9747   10.3386 F       1  UNL1       -0.2328
     17 C          64.4289   86.0717   14.1622 C.3     1  UNL1        0.0730
     18 C          63.7770   86.4692   15.4534 C.ar    1  UNL1        0.0825
     19 C          63.2219   85.4179   16.3681 C.ar    1  UNL1        0.1139
     20 N          62.5701   85.8154   17.6593 N.ar    1  UNL1       -0.2394
     21 C          62.4733   87.2642   18.0356 C.ar    1  UNL1        0.1195
     22 C          63.0283   88.3154   17.1209 C.ar    1  UNL1        0.1191
     23 N          63.6802   87.9180   15.8298 N.ar    1  UNL1       -0.2446
@<TRIPOS>BOND
     1    12    13    1
     2    13    14    1
     3    14    15    1
     4    15    16    1
     5    13    11    1
     6    11    10    1
     7    10     1    1
     8     1     2    2
     9     2    17    1
    10    17    18    1
    11    18    19   ar
    12    19    20   ar
    13    20    21   ar
    14    21    22   ar
    15    22    23   ar
    16     2     3    1
    17     3     4   ar
    18     4     5   ar
    19     5     6   ar
    20     6     7   ar
    21     7     8   ar
    22     8     9    1
    23     9     1    1
    24    23    18   ar
    25     8     3   ar
