@<TRIPOS>MOLECULE
*****
 31 33 0 0 0
SMALL
GASTEIGER

@<TRIPOS>ATOM
      1 C          61.8945   86.4771   10.0990 C.ar    1  UNL1        0.1393
      2 N          61.9674   87.4211   11.2625 N.ar    1  UNL1       -0.2155
      3 C          61.1946   88.7064   11.2350 C.ar    1  UNL1        0.1343
      4 C          60.3491   89.0478   10.0439 C.ar    1  UNL1        0.0310
      5 C          60.2762   88.1039    8.8805 C.ar    1  UNL1       -0.0067
      6 C          59.4307   88.4453    7.6895 C.3     1  UNL1        0.0319
      7 C          61.0490   86.8185    8.9081 C.ar    1  UNL1        0.0959
      8 N          62.6672   85.1918   10.1266 N.pl3   1  UNL1       -0.3145
      9 H          63.1276   84.8767    9.3154 H       1  UNL1        0.1483
     10 C          62.7386   84.3865   11.3901 C.3     1  UNL1        0.1362
     11 C          63.8251   83.3681   11.5701 C.3     1  UNL1        0.2266
     12 O          64.4211   83.1391   12.9274 O.3     1  UNL1       -0.4724
     13 C          62.5602   86.3968   17.6097 C.3     1  UNL1        0.0521
     14 C          63.0254   85.5824   16.4391 C.ar    1  UNL1        0.0592
     15 C          64.2031   86.0376   15.6293 C.ar    1  UNL1        0.0178
     16 C          64.6683   85.2232   14.4587 C.ar    1  UNL1        0.0393
     17 C          63.9559   83.9535   14.0979 C.ar    1  UNL1        0.1520
     18 C          62.7782   83.4982   14.9077 C.ar    1  UNL1        0.0927
     19 C          62.0657   82.2284   14.5469 C.3     1  UNL1        0.0553
     20 N          62.3130   84.3127   16.0783 N.ar    1  UNL1       -0.2509
     21 N          61.2675   89.6504   12.3984 N.pl3   1  UNL1       -0.2837
     22 H          60.4911   89.7582   12.9942 H       1  UNL1        0.1550
     23 C          62.5231   90.4301   12.6541 C.ar    1  UNL1        0.1276
     24 C          63.4146   91.0332   11.6093 C.ar    1  UNL1        0.0503
     25 C          64.5502   91.7195   12.3089 C.ar    1  UNL1        0.0815
     26 C          65.6774   92.4555   11.6475 C.3     1  UNL1        0.0540
     27 N          64.3606   91.5406   13.7861 N.ar    1  UNL1       -0.1760
     28 N          63.1077   90.7436   13.9995 N.ar    1  UNL1       -0.2631
     29 H          62.7347   90.4738   14.8697 H       1  UNL1        0.1903
     30 C          60.9761   85.8746    7.7445 C.1     1  UNL1        0.1029
     31 N          60.9032   84.9306    6.5811 N.1     1  UNL1       -0.1907
@<TRIPOS>BOND
     1    13    14    1
     2    14    15   ar
     3    15    16   ar
     4    16    17   ar
     5    17    12    1
     6    12    11    1
     7    11    10    1
     8    10     8    1
     9     8     1    1
    10     1     2   ar
    11     2     3   ar
    12     3    21    1
    13    21    23    1
    14    23    24   ar
    15    24    25   ar
    16    25    26    1
    17    25    27   ar
    18    27    28   ar
    19     3     4   ar
    20     4     5   ar
    21     5     6    1
    22     5     7   ar
    23     7    30    1
    24    30    31    3
    25    17    18   ar
    26    18    19    1
    27    18    20   ar
    28    20    14   ar
    29     7     1   ar
    30    28    23   ar
    31     8     9    1
    32    21    22    1
    33    28    29    1
@<TRIPOS>MOLECULE
*****
 31 33 0 0 0
SMALL
GASTEIGER

@<TRIPOS>ATOM
      1 C          60.8041   87.1172   10.9272 C.ar    1  UNL1        0.1393
      2 N          61.6495   86.3980   11.9363 N.ar    1  UNL1       -0.2155
      3 C          62.6265   85.3521   11.4872 C.ar    1  UNL1        0.1343
      4 C          62.7581   85.0254   10.0291 C.ar    1  UNL1        0.0310
      5 C          61.9127   85.7446    9.0201 C.ar    1  UNL1       -0.0067
      6 C          62.0443   85.4179    7.5620 C.3     1  UNL1        0.0319
      7 C          60.9357   86.7904    9.4691 C.ar    1  UNL1        0.0959
      8 N          59.8271   88.1630   11.3762 N.pl3   1  UNL1       -0.3145
      9 H          58.8831   87.9245   11.5223 H       1  UNL1        0.1483
     10 C          60.2883   89.5724   11.6026 C.3     1  UNL1        0.1362
     11 C          61.7532   89.8722   11.7209 C.3     1  UNL1        0.2266
     12 O          62.4510   89.6959   13.0369 O.3     1  UNL1       -0.4724
     13 C          66.9556   93.3557   14.5582 C.3     1  UNL1        0.0521
     14 C          65.8295   92.4407   14.1779 C.ar    1  UNL1        0.0592
     15 C          65.3827   92.3552   12.7485 C.ar    1  UNL1        0.0178
     16 C          64.2565   91.4402   12.3682 C.ar    1  UNL1        0.0393
     17 C          63.5771   90.6109   13.4172 C.ar    1  UNL1        0.1520
     18 C          64.0239   90.6964   14.8466 C.ar    1  UNL1        0.0927
     19 C          63.3445   89.8670   15.8957 C.3     1  UNL1        0.0553
     20 N          65.1501   91.6114   15.2269 N.ar    1  UNL1       -0.2509
     21 N          63.4718   84.6330   12.4962 N.pl3   1  UNL1       -0.2837
     22 H          64.3323   85.0173   12.7810 H       1  UNL1        0.1550
     23 C          63.0062   83.3283   13.0713 C.ar    1  UNL1        0.1276
     24 C          63.0819   81.9904   12.3971 C.ar    1  UNL1        0.0503
     25 C          62.5055   80.9675   13.3307 C.ar    1  UNL1        0.0815
     26 C          62.3827   79.4973   13.0605 C.3     1  UNL1        0.0540
     27 N          62.0736   81.6732   14.5820 N.ar    1  UNL1       -0.1760
     28 N          62.3830   83.1322   14.4216 N.ar    1  UNL1       -0.2631
     29 H          62.2079   83.8373   15.0860 H       1  UNL1        0.1903
     30 C          60.0903   87.5096    8.4600 C.1     1  UNL1        0.1029
     31 N          59.2449   88.2287    7.4510 N.1     1  UNL1       -0.1907
@<TRIPOS>BOND
     1    13    14    1
     2    14    15   ar
     3    15    16   ar
     4    16    17   ar
     5    17    12    1
     6    12    11    1
     7    11    10    1
     8    10     8    1
     9     8     1    1
    10     1     2   ar
    11     2     3   ar
    12     3    21    1
    13    21    23    1
    14    23    24   ar
    15    24    25   ar
    16    25    26    1
    17    25    27   ar
    18    27    28   ar
    19     3     4   ar
    20     4     5   ar
    21     5     6    1
    22     5     7   ar
    23     7    30    1
    24    30    31    3
    25    17    18   ar
    26    18    19    1
    27    18    20   ar
    28    20    14   ar
    29     7     1   ar
    30    28    23   ar
    31     8     9    1
    32    21    22    1
    33    28    29    1
@<TRIPOS>MOLECULE
*****
 31 33 0 0 0
SMALL
GASTEIGER

@<TRIPOS>ATOM
      1 C          63.2212   87.7817   12.6791 C.ar    1  UNL1        0.1393
      2 N          63.7356   86.6751   13.5515 N.ar    1  UNL1       -0.2155
      3 C          63.5071   85.2448   13.1616 C.ar    1  UNL1        0.1343
      4 C          62.7643   84.9210   11.8993 C.ar    1  UNL1        0.0310
      5 C          62.2499   86.0275   11.0269 C.ar    1  UNL1       -0.0067
      6 C          61.5070   85.7038    9.7646 C.3     1  UNL1        0.0319
      7 C          62.4784   87.4579   11.4168 C.ar    1  UNL1        0.0959
      8 N          63.4496   89.2120   13.0690 N.pl3   1  UNL1       -0.3145
      9 H          63.0567   89.9374   12.5317 H       1  UNL1        0.1483
     10 C          64.2768   89.5370   14.2774 C.3     1  UNL1        0.1362
     11 C          64.0451   90.8181   15.0224 C.3     1  UNL1        0.2266
     12 O          64.9698   91.9816   14.8192 O.3     1  UNL1       -0.4724
     13 C          68.0526   92.5051    9.6985 C.3     1  UNL1        0.0521
     14 C          67.2819   92.3742   10.9787 C.ar    1  UNL1        0.0592
     15 C          65.7832   92.4341   10.9613 C.ar    1  UNL1        0.0178
     16 C          65.0125   92.3032   12.2415 C.ar    1  UNL1        0.0393
     17 C          65.7405   92.1125   13.5390 C.ar    1  UNL1        0.1520
     18 C          67.2391   92.0526   13.5564 C.ar    1  UNL1        0.0927
     19 C          67.9672   91.8618   14.8540 C.3     1  UNL1        0.0553
     20 N          68.0099   92.1834   12.2762 N.ar    1  UNL1       -0.2509
     21 N          64.0215   84.1383   14.0339 N.pl3   1  UNL1       -0.2837
     22 H          64.8237   84.2798   14.5868 H       1  UNL1        0.1550
     23 C          63.3136   82.8163   14.0639 C.ar    1  UNL1        0.1276
     24 C          61.8290   82.6123   14.1315 C.ar    1  UNL1        0.0503
     25 C          61.5638   81.1360   14.1409 C.ar    1  UNL1        0.0815
     26 C          60.2149   80.4830   14.2014 C.3     1  UNL1        0.0540
     27 N          62.8845   80.4274   14.0792 N.ar    1  UNL1       -0.1760
     28 N          63.9659   81.4659   14.0316 N.ar    1  UNL1       -0.2631
     29 H          64.9339   81.2917   13.9870 H       1  UNL1        0.1903
     30 C          61.9639   88.5644   10.5444 C.1     1  UNL1        0.1029
     31 N          61.4495   89.6708    9.6720 N.1     1  UNL1       -0.1907
@<TRIPOS>BOND
     1    13    14    1
     2    14    15   ar
     3    15    16   ar
     4    16    17   ar
     5    17    12    1
     6    12    11    1
     7    11    10    1
     8    10     8    1
     9     8     1    1
    10     1     2   ar
    11     2     3   ar
    12     3    21    1
    13    21    23    1
    14    23    24   ar
    15    24    25   ar
    16    25    26    1
    17    25    27   ar
    18    27    28   ar
    19     3     4   ar
    20     4     5   ar
    21     5     6    1
    22     5     7   ar
    23     7    30    1
    24    30    31    3
    25    17    18   ar
    26    18    19    1
    27    18    20   ar
    28    20    14   ar
    29     7     1   ar
    30    28    23   ar
    31     8     9    1
    32    21    22    1
    33    28    29    1
@<TRIPOS>MOLECULE
*****
 31 33 0 0 0
SMALL
GASTEIGER

@<TRIPOS>ATOM
      1 C          63.7522   91.0732   12.1320 C.ar    1  UNL1        0.1393
      2 N          63.2091   90.2399   13.2549 N.ar    1  UNL1       -0.2155
      3 C          63.8749   90.2668   14.5988 C.ar    1  UNL1        0.1343
      4 C          65.0838   91.1269   14.8197 C.ar    1  UNL1        0.0310
      5 C          65.6269   91.9601   13.6969 C.ar    1  UNL1       -0.0067
      6 C          66.8358   92.8203   13.9179 C.3     1  UNL1        0.0319
      7 C          64.9611   91.9332   12.3530 C.ar    1  UNL1        0.0959
      8 N          63.0865   91.0463   10.7881 N.pl3   1  UNL1       -0.3145
      9 H          62.8876   91.8894   10.3203 H       1  UNL1        0.1483
     10 C          62.7237   89.7347   10.1570 C.3     1  UNL1        0.1362
     11 C          61.3112   89.2346   10.2257 C.3     1  UNL1        0.2266
     12 O          61.0417   87.7667   10.3753 O.3     1  UNL1       -0.4724
     13 C          61.9969   84.0551    5.7588 C.3     1  UNL1        0.0521
     14 C          61.7581   84.9830    6.9129 C.ar    1  UNL1        0.0592
     15 C          62.8496   85.2358    7.9103 C.ar    1  UNL1        0.0178
     16 C          62.6108   86.1637    9.0644 C.ar    1  UNL1        0.0393
     17 C          61.2805   86.8388    9.2212 C.ar    1  UNL1        0.1520
     18 C          60.1890   86.5860    8.2238 C.ar    1  UNL1        0.0927
     19 C          58.8587   87.2611    8.3806 C.3     1  UNL1        0.0553
     20 N          60.4278   85.6581    7.0697 N.ar    1  UNL1       -0.2509
     21 N          63.3318   89.4336   15.7216 N.pl3   1  UNL1       -0.2837
     22 H          62.8126   89.8576   16.4427 H       1  UNL1        0.1550
     23 C          63.5798   87.9545   15.7458 C.ar    1  UNL1        0.1276
     24 C          64.4051   87.1826   14.7593 C.ar    1  UNL1        0.0503
     25 C          64.3815   85.7385   15.1646 C.ar    1  UNL1        0.0815
     26 C          65.0758   84.6128   14.4571 C.3     1  UNL1        0.0540
     27 N          63.5416   85.6179   16.4016 N.ar    1  UNL1       -0.1760
     28 N          63.0462   86.9875   16.7608 N.ar    1  UNL1       -0.2631
     29 H          62.4716   87.2122   17.5280 H       1  UNL1        0.1903
     30 C          65.5042   92.7665   11.2301 C.1     1  UNL1        0.1029
     31 N          66.0474   93.5996   10.1073 N.1     1  UNL1       -0.1907
@<TRIPOS>BOND
     1    13    14    1
     2    14    15   ar
     3    15    16   ar
     4    16    17   ar
     5    17    12    1
     6    12    11    1
     7    11    10    1
     8    10     8    1
     9     8     1    1
    10     1     2   ar
    11     2     3   ar
    12     3    21    1
    13    21    23    1
    14    23    24   ar
    15    24    25   ar
    16    25    26    1
    17    25    27   ar
    18    27    28   ar
    19     3     4   ar
    20     4     5   ar
    21     5     6    1
    22     5     7   ar
    23     7    30    1
    24    30    31    3
    25    17    18   ar
    26    18    19    1
    27    18    20   ar
    28    20    14   ar
    29     7     1   ar
    30    28    23   ar
    31     8     9    1
    32    21    22    1
    33    28    29    1
@<TRIPOS>MOLECULE
*****
 31 33 0 0 0
SMALL
GASTEIGER

@<TRIPOS>ATOM
      1 C          63.2870   90.3768   12.7019 C.ar    1  UNL1        0.1393
      2 N          62.8664   89.6217   13.9279 N.ar    1  UNL1       -0.2155
      3 C          63.5885   89.8358   15.2251 C.ar    1  UNL1        0.1343
      4 C          64.7312   90.8050   15.2963 C.ar    1  UNL1        0.0310
      5 C          65.1517   91.5600   14.0704 C.ar    1  UNL1       -0.0067
      6 C          66.2944   92.5292   14.1416 C.3     1  UNL1        0.0319
      7 C          64.4297   91.3460   12.7732 C.ar    1  UNL1        0.0959
      8 N          62.5649   90.1627   11.4047 N.pl3   1  UNL1       -0.3145
      9 H          62.0790   90.9079   10.9830 H       1  UNL1        0.1483
     10 C          62.5832   88.8132   10.7500 C.3     1  UNL1        0.1362
     11 C          61.5505   88.4657    9.7191 C.3     1  UNL1        0.2266
     12 O          61.1054   87.0429    9.5533 O.3     1  UNL1       -0.4724
     13 C          64.3887   82.5838   11.8634 C.3     1  UNL1        0.0521
     14 C          63.5679   83.6986   11.2859 C.ar    1  UNL1        0.0592
     15 C          62.6988   84.5315   12.1808 C.ar    1  UNL1        0.0178
     16 C          61.8780   85.6463   11.6033 C.ar    1  UNL1        0.0393
     17 C          61.9262   85.9281   10.1308 C.ar    1  UNL1        0.1520
     18 C          62.7953   85.0952    9.2359 C.ar    1  UNL1        0.0927
     19 C          62.8435   85.3770    7.7633 C.3     1  UNL1        0.0553
     20 N          63.6161   83.9804    9.8134 N.ar    1  UNL1       -0.2509
     21 N          63.1680   89.0807   16.4511 N.pl3   1  UNL1       -0.2837
     22 H          62.9680   89.5663   17.2838 H       1  UNL1        0.1550
     23 C          63.0521   87.5858   16.4082 C.ar    1  UNL1        0.1276
     24 C          63.9603   86.6520   15.6644 C.ar    1  UNL1        0.0503
     25 C          63.4772   85.2513   15.8981 C.ar    1  UNL1        0.0815
     26 C          64.0928   84.0020   15.3413 C.3     1  UNL1        0.0540
     27 N          62.2704   85.3194   16.7863 N.ar    1  UNL1       -0.1760
     28 N          62.0077   86.7622   17.1016 N.ar    1  UNL1       -0.2631
     29 H          61.2779   87.1079   17.6648 H       1  UNL1        0.1903
     30 C          64.8503   92.1011   11.5472 C.1     1  UNL1        0.1029
     31 N          65.2708   92.8561   10.3213 N.1     1  UNL1       -0.1907
@<TRIPOS>BOND
     1    13    14    1
     2    14    15   ar
     3    15    16   ar
     4    16    17   ar
     5    17    12    1
     6    12    11    1
     7    11    10    1
     8    10     8    1
     9     8     1    1
    10     1     2   ar
    11     2     3   ar
    12     3    21    1
    13    21    23    1
    14    23    24   ar
    15    24    25   ar
    16    25    26    1
    17    25    27   ar
    18    27    28   ar
    19     3     4   ar
    20     4     5   ar
    21     5     6    1
    22     5     7   ar
    23     7    30    1
    24    30    31    3
    25    17    18   ar
    26    18    19    1
    27    18    20   ar
    28    20    14   ar
    29     7     1   ar
    30    28    23   ar
    31     8     9    1
    32    21    22    1
    33    28    29    1
@<TRIPOS>MOLECULE
*****
 31 33 0 0 0
SMALL
GASTEIGER

@<TRIPOS>ATOM
      1 C          62.3469   86.1456   11.2521 C.ar    1  UNL1        0.1393
      2 N          63.0511   86.7628   12.4240 N.ar    1  UNL1       -0.2155
      3 C          63.1209   88.2554   12.5558 C.ar    1  UNL1        0.1343
      4 C          62.4865   89.1307   11.5158 C.ar    1  UNL1        0.0310
      5 C          61.7824   88.5134   10.3441 C.ar    1  UNL1       -0.0067
      6 C          61.1480   89.3887    9.3041 C.3     1  UNL1        0.0319
      7 C          61.7125   87.0208   10.2122 C.ar    1  UNL1        0.0959
      8 N          62.2770   84.6530   11.1203 N.pl3   1  UNL1       -0.3145
      9 H          61.4841   84.1669   11.4431 H       1  UNL1        0.1483
     10 C          63.4153   83.9011   10.4966 C.3     1  UNL1        0.1362
     11 C          64.5558   83.4258   11.3472 C.3     1  UNL1        0.2266
     12 O          64.2843   82.7882   12.6775 O.3     1  UNL1       -0.4724
     13 C          62.8588   86.1984   17.4038 C.3     1  UNL1        0.0521
     14 C          63.2152   85.3459   16.2222 C.ar    1  UNL1        0.0592
     15 C          64.4451   85.6521   15.4201 C.ar    1  UNL1        0.0178
     16 C          64.8015   84.7996   14.2385 C.ar    1  UNL1        0.0393
     17 C          63.9279   83.6408   13.8591 C.ar    1  UNL1        0.1520
     18 C          62.6980   83.3345   14.6612 C.ar    1  UNL1        0.0927
     19 C          61.8243   82.1757   14.2817 C.3     1  UNL1        0.0553
     20 N          62.3416   84.1871   15.8428 N.ar    1  UNL1       -0.2509
     21 N          63.8251   88.8727   13.7276 N.pl3   1  UNL1       -0.2837
     22 H          63.8770   88.3870   14.5824 H       1  UNL1        0.1550
     23 C          64.4502   90.2299   13.5969 C.ar    1  UNL1        0.1276
     24 C          65.4819   90.8174   14.5138 C.ar    1  UNL1        0.0503
     25 C          65.8228   92.1886   14.0100 C.ar    1  UNL1        0.0815
     26 C          66.8111   93.1338   14.6262 C.3     1  UNL1        0.0540
     27 N          65.0018   92.4485   12.7818 N.ar    1  UNL1       -0.1760
     28 N          64.1535   91.2380   12.5265 N.ar    1  UNL1       -0.2631
     29 H          63.5143   91.1249   11.7863 H       1  UNL1        0.1903
     30 C          61.0083   86.4036    9.0404 C.1     1  UNL1        0.1029
     31 N          60.3041   85.7863    7.8686 N.1     1  UNL1       -0.1907
@<TRIPOS>BOND
     1    13    14    1
     2    14    15   ar
     3    15    16   ar
     4    16    17   ar
     5    17    12    1
     6    12    11    1
     7    11    10    1
     8    10     8    1
     9     8     1    1
    10     1     2   ar
    11     2     3   ar
    12     3    21    1
    13    21    23    1
    14    23    24   ar
    15    24    25   ar
    16    25    26    1
    17    25    27   ar
    18    27    28   ar
    19     3     4   ar
    20     4     5   ar
    21     5     6    1
    22     5     7   ar
    23     7    30    1
    24    30    31    3
    25    17    18   ar
    26    18    19    1
    27    18    20   ar
    28    20    14   ar
    29     7     1   ar
    30    28    23   ar
    31     8     9    1
    32    21    22    1
    33    28    29    1
@<TRIPOS>MOLECULE
*****
 31 33 0 0 0
SMALL
GASTEIGER

@<TRIPOS>ATOM
      1 C          63.7481   90.8665   12.1391 C.ar    1  UNL1        0.1393
      2 N          63.4214   89.7722   13.1117 N.ar    1  UNL1       -0.2155
      3 C          64.2064   89.6396   14.3830 C.ar    1  UNL1        0.1343
      4 C          65.3181   90.6014   14.6818 C.ar    1  UNL1        0.0310
      5 C          65.6448   91.6956   13.7092 C.ar    1  UNL1       -0.0067
      6 C          66.7566   92.6573   14.0079 C.3     1  UNL1        0.0319
      7 C          64.8598   91.8281   12.4379 C.ar    1  UNL1        0.0959
      8 N          62.9631   90.9990   10.8678 N.pl3   1  UNL1       -0.3145
      9 H          62.6509   91.8846   10.5722 H       1  UNL1        0.1483
     10 C          62.6539   89.7821   10.0470 C.3     1  UNL1        0.1362
     11 C          61.2354   89.4724    9.6700 C.3     1  UNL1        0.2266
     12 O          60.9120   88.1963    8.9511 O.3     1  UNL1       -0.4724
     13 C          63.8975   83.1645   10.2808 C.3     1  UNL1        0.0521
     14 C          63.1511   84.4224    9.9484 C.ar    1  UNL1        0.0592
     15 C          63.2377   85.0034    8.5682 C.ar    1  UNL1        0.0178
     16 C          62.4914   86.2614    8.2358 C.ar    1  UNL1        0.0393
     17 C          61.6584   86.9383    9.2836 C.ar    1  UNL1        0.1520
     18 C          61.5718   86.3573   10.6637 C.ar    1  UNL1        0.0927
     19 C          60.7388   87.0343   11.7116 C.3     1  UNL1        0.0553
     20 N          62.3181   85.0994   10.9961 N.ar    1  UNL1       -0.2509
     21 N          63.8797   88.5454   15.3556 N.pl3   1  UNL1       -0.2837
     22 H          63.6579   88.7665   16.2890 H       1  UNL1        0.1550
     23 C          63.8909   87.1145   14.9061 C.ar    1  UNL1        0.1276
     24 C          64.0064   85.9118   15.7951 C.ar    1  UNL1        0.0503
     25 C          63.9755   84.6889   14.9271 C.ar    1  UNL1        0.0815
     26 C          64.0637   83.2687   15.4013 C.3     1  UNL1        0.0540
     27 N          63.8408   85.1357   13.5015 N.ar    1  UNL1       -0.1760
     28 N          63.7885   86.6348   13.4885 N.ar    1  UNL1       -0.2631
     29 H          63.7021   87.2039   12.6898 H       1  UNL1        0.1903
     30 C          65.1866   92.9224   11.4653 C.1     1  UNL1        0.1029
     31 N          65.5133   94.0167   10.4928 N.1     1  UNL1       -0.1907
@<TRIPOS>BOND
     1    13    14    1
     2    14    15   ar
     3    15    16   ar
     4    16    17   ar
     5    17    12    1
     6    12    11    1
     7    11    10    1
     8    10     8    1
     9     8     1    1
    10     1     2   ar
    11     2     3   ar
    12     3    21    1
    13    21    23    1
    14    23    24   ar
    15    24    25   ar
    16    25    26    1
    17    25    27   ar
    18    27    28   ar
    19     3     4   ar
    20     4     5   ar
    21     5     6    1
    22     5     7   ar
    23     7    30    1
    24    30    31    3
    25    17    18   ar
    26    18    19    1
    27    18    20   ar
    28    20    14   ar
    29     7     1   ar
    30    28    23   ar
    31     8     9    1
    32    21    22    1
    33    28    29    1
@<TRIPOS>MOLECULE
*****
 31 33 0 0 0
SMALL
GASTEIGER

@<TRIPOS>ATOM
      1 C          60.6978   88.6412    9.4288 C.ar    1  UNL1        0.1393
      2 N          59.8436   89.5242    8.5680 N.ar    1  UNL1       -0.2155
      3 C          59.2206   88.9770    7.3181 C.ar    1  UNL1        0.1343
      4 C          59.4517   87.5469    6.9289 C.ar    1  UNL1        0.0310
      5 C          60.3058   86.6640    7.7896 C.ar    1  UNL1       -0.0067
      6 C          60.5368   85.2338    7.4004 C.3     1  UNL1        0.0319
      7 C          60.9288   87.2111    9.0396 C.ar    1  UNL1        0.0959
      8 N          61.3208   89.1883   10.6788 N.pl3   1  UNL1       -0.3145
      9 H          60.8367   89.1345   11.5344 H       1  UNL1        0.1483
     10 C          62.6815   89.8175   10.6252 C.3     1  UNL1        0.1362
     11 C          62.8945   91.1928   11.1848 C.3     1  UNL1        0.2266
     12 O          64.2340   91.8555   11.0566 O.3     1  UNL1       -0.4724
     13 C          67.8110   92.3427   15.8490 C.3     1  UNL1        0.0521
     14 C          66.9168   92.2209   14.6509 C.ar    1  UNL1        0.0592
     15 C          65.7359   91.2967   14.6873 C.ar    1  UNL1        0.0178
     16 C          64.8416   91.1750   13.4892 C.ar    1  UNL1        0.0393
     17 C          65.1282   91.9773   12.2547 C.ar    1  UNL1        0.1520
     18 C          66.3091   92.9015   12.2183 C.ar    1  UNL1        0.0927
     19 C          66.5958   93.7039   10.9838 C.3     1  UNL1        0.0553
     20 N          67.2034   93.0232   13.4164 N.ar    1  UNL1       -0.2509
     21 N          58.3665   89.8599    6.4573 N.pl3   1  UNL1       -0.2837
     22 H          57.3853   89.7989    6.5104 H       1  UNL1        0.1550
     23 C          59.0073   90.8358    5.5156 C.ar    1  UNL1        0.1276
     24 C          60.3848   90.7238    4.9325 C.ar    1  UNL1        0.0503
     25 C          60.6121   91.9139    4.0481 C.ar    1  UNL1        0.0815
     26 C          61.8576   92.2052    3.2648 C.3     1  UNL1        0.0540
     27 N          59.3750   92.7615    4.0846 N.ar    1  UNL1       -0.1760
     28 N          58.3832   92.0952    4.9916 N.ar    1  UNL1       -0.2631
     29 H          57.4810   92.4263    5.2054 H       1  UNL1        0.1903
     30 C          61.7830   86.3281    9.9004 C.1     1  UNL1        0.1029
     31 N          62.6370   85.4452   10.7611 N.1     1  UNL1       -0.1907
@<TRIPOS>BOND
     1    13    14    1
     2    14    15   ar
     3    15    16   ar
     4    16    17   ar
     5    17    12    1
     6    12    11    1
     7    11    10    1
     8    10     8    1
     9     8     1    1
    10     1     2   ar
    11     2     3   ar
    12     3    21    1
    13    21    23    1
    14    23    24   ar
    15    24    25   ar
    16    25    26    1
    17    25    27   ar
    18    27    28   ar
    19     3     4   ar
    20     4     5   ar
    21     5     6    1
    22     5     7   ar
    23     7    30    1
    24    30    31    3
    25    17    18   ar
    26    18    19    1
    27    18    20   ar
    28    20    14   ar
    29     7     1   ar
    30    28    23   ar
    31     8     9    1
    32    21    22    1
    33    28    29    1
@<TRIPOS>MOLECULE
*****
 31 33 0 0 0
SMALL
GASTEIGER

@<TRIPOS>ATOM
      1 C          63.3722   91.2092   11.5954 C.ar    1  UNL1        0.1393
      2 N          64.7026   91.8842   11.4390 N.ar    1  UNL1       -0.2155
      3 C          65.6537   91.9449   12.5974 C.ar    1  UNL1        0.1343
      4 C          65.2742   91.3305   13.9123 C.ar    1  UNL1        0.0310
      5 C          63.9439   90.6556   14.0686 C.ar    1  UNL1       -0.0067
      6 C          63.5644   90.0413   15.3835 C.3     1  UNL1        0.0319
      7 C          62.9928   90.5949   12.9102 C.ar    1  UNL1        0.0959
      8 N          62.4212   91.1485   10.4370 N.pl3   1  UNL1       -0.3145
      9 H          61.9510   91.9619   10.1430 H       1  UNL1        0.1483
     10 C          62.1865   89.8483    9.7266 C.3     1  UNL1        0.1362
     11 C          60.8355   89.1986    9.7783 C.3     1  UNL1        0.2266
     12 O          60.7222   87.7213   10.0118 O.3     1  UNL1       -0.4724
     13 C          62.3503   83.8703    5.7084 C.3     1  UNL1        0.0521
     14 C          61.9433   84.8331    6.7842 C.ar    1  UNL1        0.0592
     15 C          62.9376   85.2623    7.8220 C.ar    1  UNL1        0.0178
     16 C          62.5306   86.2250    8.8979 C.ar    1  UNL1        0.0393
     17 C          61.1292   86.7585    8.9359 C.ar    1  UNL1        0.1520
     18 C          60.1349   86.3294    7.8981 C.ar    1  UNL1        0.0927
     19 C          58.7335   86.8629    7.9361 C.3     1  UNL1        0.0553
     20 N          60.5419   85.3666    6.8223 N.ar    1  UNL1       -0.2509
     21 N          66.9840   92.6198   12.4410 N.pl3   1  UNL1       -0.2837
     22 H          67.6092   92.6575   13.2006 H       1  UNL1        0.1550
     23 C          67.3619   93.2373   11.1273 C.ar    1  UNL1        0.1276
     24 C          66.9101   94.5744   10.6191 C.ar    1  UNL1        0.0503
     25 C          67.5268   94.7897    9.2689 C.ar    1  UNL1        0.0815
     26 C          67.3429   95.9969    8.3979 C.3     1  UNL1        0.0540
     27 N          68.3598   93.5857    8.9424 N.ar    1  UNL1       -0.1760
     28 N          68.2579   92.6263   10.0911 N.ar    1  UNL1       -0.2631
     29 H          68.7012   91.7495   10.1538 H       1  UNL1        0.1903
     30 C          61.6624   89.9199   13.0667 C.1     1  UNL1        0.1029
     31 N          60.3320   89.2450   13.2231 N.1     1  UNL1       -0.1907
@<TRIPOS>BOND
     1    13    14    1
     2    14    15   ar
     3    15    16   ar
     4    16    17   ar
     5    17    12    1
     6    12    11    1
     7    11    10    1
     8    10     8    1
     9     8     1    1
    10     1     2   ar
    11     2     3   ar
    12     3    21    1
    13    21    23    1
    14    23    24   ar
    15    24    25   ar
    16    25    26    1
    17    25    27   ar
    18    27    28   ar
    19     3     4   ar
    20     4     5   ar
    21     5     6    1
    22     5     7   ar
    23     7    30    1
    24    30    31    3
    25    17    18   ar
    26    18    19    1
    27    18    20   ar
    28    20    14   ar
    29     7     1   ar
    30    28    23   ar
    31     8     9    1
    32    21    22    1
    33    28    29    1
