@<TRIPOS>MOLECULE
*****
 32 36 0 0 0
SMALL
GASTEIGER

@<TRIPOS>ATOM
      1 C          63.4494   89.8928   11.5826 C.ar    1  UNL1        0.0039
      2 C          63.7291   90.7916   10.4148 C.ar    1  UNL1        0.0002
      3 C          64.5140   92.0546   10.6115 C.ar    1  UNL1        0.0029
      4 C          65.0192   92.4188   11.9761 C.ar    1  UNL1        0.0349
      5 C          65.8042   93.6818   12.1728 C.ar    1  UNL1        0.1535
      6 N          66.3094   94.0460   13.5374 N.ar    1  UNL1       -0.1329
      7 N          66.0297   93.1471   14.7053 N.ar    1  UNL1       -0.1452
      8 C          65.2448   91.8841   14.5085 C.ar    1  UNL1        0.1222
      9 C          64.7396   91.5200   13.1439 C.ar    1  UNL1        0.0237
     10 C          63.9547   90.2570   12.9472 C.ar    1  UNL1        0.0018
     11 C          62.7378   85.1178   12.9520 C.ar    1  UNL1        0.1704
     12 N          63.8557   85.7426   13.7328 N.ar    1  UNL1       -0.0621
     13 O          64.0077   87.1613   13.2702 O.2     1  UNL1       -0.3521
     14 C          62.9837   87.4134   12.2035 C.ar    1  UNL1        0.1788
     15 C          62.6645   88.6297   11.3859 C.ar    1  UNL1        0.0478
     16 C          61.5604   88.5831   10.3716 C.ar    1  UNL1        0.0607
     17 CL         61.2413   89.7995    9.5540 Cl      1  UNL1       -0.0821
     18 C          60.7755   87.3200   10.1749 C.ar    1  UNL1        0.0117
     19 C          61.0947   86.1037   10.9925 C.ar    1  UNL1        0.0069
     20 C          62.1988   86.1503   12.0069 C.ar    1  UNL1        0.0718
     21 N          62.2452   83.7079   13.0918 N.pl3   1  UNL1       -0.3171
     22 H          61.5130   83.5020   13.7168 H       1  UNL1        0.1482
     23 C          62.4881   81.1827   12.5309 C.3     1  UNL1        0.0212
     24 C          62.8682   82.6117   12.2792 C.3     1  UNL1        0.0706
     25 C          63.8715   82.9446   11.2149 C.3     1  UNL1        0.0212
     26 N          66.0838   94.5806   11.0049 N.pl3   1  UNL1       -0.2884
     27 C          65.3734   95.8962   10.8840 C.3     1  UNL1        0.1242
     28 C          65.6531   96.7950    9.7161 C.3     1  UNL1        0.1636
     29 O          66.6432   96.3783    8.6692 O.3     1  UNL1       -0.3502
     30 C          67.3536   95.0627    8.7901 C.3     1  UNL1        0.1618
     31 C          67.0739   94.1639    9.9579 C.3     1  UNL1        0.1039
     32 C          67.7843   92.8483   10.0789 C.3     1  UNL1        0.0241
@<TRIPOS>BOND
     1    23    24    1
     2    24    25    1
     3    24    21    1
     4    21    11    1
     5    11    12   ar
     6    12    13   ar
     7    13    14   ar
     8    14    15   ar
     9    15     1    1
    10     1     2   ar
    11     2     3   ar
    12     3     4   ar
    13     4     5   ar
    14     5    26    1
    15    26    27    1
    16    27    28    1
    17    28    29    1
    18    29    30    1
    19    30    31    1
    20    31    32    1
    21     5     6   ar
    22     6     7   ar
    23     7     8   ar
    24     8     9   ar
    25     9    10   ar
    26    15    16   ar
    27    16    17    1
    28    16    18   ar
    29    18    19   ar
    30    19    20   ar
    31    20    11   ar
    32    20    14   ar
    33    10     1   ar
    34     9     4   ar
    35    31    26    1
    36    21    22    1
@<TRIPOS>MOLECULE
*****
 32 36 0 0 0
SMALL
GASTEIGER

@<TRIPOS>ATOM
      1 C          64.0472   89.5379   13.1091 C.ar    1  UNL1        0.0039
      2 C          64.4063   88.2911   13.8617 C.ar    1  UNL1        0.0002
      3 C          63.8036   86.9760   13.4652 C.ar    1  UNL1        0.0029
      4 C          62.8418   86.9077   12.3161 C.ar    1  UNL1        0.0349
      5 C          62.2391   85.5926   11.9197 C.ar    1  UNL1        0.1535
      6 N          61.2774   85.5243   10.7706 N.ar    1  UNL1       -0.1329
      7 N          60.9183   86.7712   10.0180 N.ar    1  UNL1       -0.1452
      8 C          61.5210   88.0863   10.4145 C.ar    1  UNL1        0.1222
      9 C          62.4828   88.1546   11.5635 C.ar    1  UNL1        0.0237
     10 C          63.0855   89.4697   11.9600 C.ar    1  UNL1        0.0018
     11 C          66.1408   93.8403   11.5961 C.ar    1  UNL1        0.1704
     12 N          65.7829   92.9731   10.4258 N.ar    1  UNL1       -0.0621
     13 O          65.1657   91.7124   10.9547 O.2     1  UNL1       -0.3521
     14 C          65.1422   91.8005   12.4519 C.ar    1  UNL1        0.1788
     15 C          64.6499   90.8531   13.5056 C.ar    1  UNL1        0.0478
     16 C          64.7603   91.2208   14.9556 C.ar    1  UNL1        0.0607
     17 CL         64.2680   90.2734   16.0092 Cl      1  UNL1       -0.0821
     18 C          65.3630   92.5360   15.3520 C.ar    1  UNL1        0.0117
     19 C          65.8553   93.4834   14.2984 C.ar    1  UNL1        0.0069
     20 C          65.7449   93.1156   12.8483 C.ar    1  UNL1        0.0718
     21 N          66.7821   95.1945   11.5265 N.pl3   1  UNL1       -0.3171
     22 H          67.4445   95.4609   12.2044 H       1  UNL1        0.1482
     23 C          67.3658   96.3779    9.2884 C.3     1  UNL1        0.0212
     24 C          66.4144   96.1427   10.4239 C.3     1  UNL1        0.0706
     25 C          65.0951   96.8557   10.4569 C.3     1  UNL1        0.0212
     26 N          62.5981   84.3457   12.6723 N.pl3   1  UNL1       -0.2884
     27 C          62.1184   84.1554   14.0807 C.3     1  UNL1        0.1242
     28 C          62.4775   82.9085   14.8333 C.3     1  UNL1        0.1636
     29 O          63.3163   81.8520   14.1775 O.3     1  UNL1       -0.3502
     30 C          63.7960   82.0423   12.7691 C.3     1  UNL1        0.1618
     31 C          63.4370   83.2891   12.0165 C.3     1  UNL1        0.1039
     32 C          63.9167   83.4794   10.6081 C.3     1  UNL1        0.0241
@<TRIPOS>BOND
     1    23    24    1
     2    24    25    1
     3    24    21    1
     4    21    11    1
     5    11    12   ar
     6    12    13   ar
     7    13    14   ar
     8    14    15   ar
     9    15     1    1
    10     1     2   ar
    11     2     3   ar
    12     3     4   ar
    13     4     5   ar
    14     5    26    1
    15    26    27    1
    16    27    28    1
    17    28    29    1
    18    29    30    1
    19    30    31    1
    20    31    32    1
    21     5     6   ar
    22     6     7   ar
    23     7     8   ar
    24     8     9   ar
    25     9    10   ar
    26    15    16   ar
    27    16    17    1
    28    16    18   ar
    29    18    19   ar
    30    19    20   ar
    31    20    11   ar
    32    20    14   ar
    33    10     1   ar
    34     9     4   ar
    35    31    26    1
    36    21    22    1
@<TRIPOS>MOLECULE
*****
 32 36 0 0 0
SMALL
GASTEIGER

@<TRIPOS>ATOM
      1 C          63.7597   89.0721   13.6700 C.ar    1  UNL1        0.0039
      2 C          62.9741   89.3995   12.4349 C.ar    1  UNL1        0.0002
      3 C          62.4600   88.2960   11.5585 C.ar    1  UNL1        0.0029
      4 C          62.7316   86.8651   11.9173 C.ar    1  UNL1        0.0349
      5 C          62.2175   85.7616   11.0409 C.ar    1  UNL1        0.1535
      6 N          62.4891   84.3307   11.3996 N.ar    1  UNL1       -0.1329
      7 N          63.2748   84.0033   12.6348 N.ar    1  UNL1       -0.1452
      8 C          63.7888   85.1067   13.5111 C.ar    1  UNL1        0.1222
      9 C          63.5172   86.5377   13.1524 C.ar    1  UNL1        0.0237
     10 C          64.0313   87.6411   14.0287 C.ar    1  UNL1        0.0018
     11 C          66.9361   92.9251   14.1669 C.ar    1  UNL1        0.1704
     12 N          67.0805   92.2762   12.8224 N.ar    1  UNL1       -0.0621
     13 O          66.1043   91.1397   12.7489 O.2     1  UNL1       -0.3521
     14 C          65.3565   91.0864   14.0481 C.ar    1  UNL1        0.1788
     15 C          64.2738   90.1756   14.5464 C.ar    1  UNL1        0.0478
     16 C          63.7053   90.3682   15.9210 C.ar    1  UNL1        0.0607
     17 CL         62.6226   89.4574   16.4193 Cl      1  UNL1       -0.0821
     18 C          64.2194   91.4717   16.7974 C.ar    1  UNL1        0.0117
     19 C          65.3021   92.3825   16.2992 C.ar    1  UNL1        0.0069
     20 C          65.8706   92.1898   14.9245 C.ar    1  UNL1        0.0718
     21 N          67.7196   94.1027   14.6662 N.pl3   1  UNL1       -0.3171
     22 H          67.5448   95.0005   14.3020 H       1  UNL1        0.1482
     23 C          69.0975   92.5338   16.2122 C.3     1  UNL1        0.0212
     24 C          68.7696   93.9125   15.7205 C.3     1  UNL1        0.0706
     25 C          69.4916   95.1008   16.2830 C.3     1  UNL1        0.0212
     26 N          61.4319   86.0890    9.8058 N.pl3   1  UNL1       -0.2884
     27 C          60.1643   86.8840    9.9120 C.3     1  UNL1        0.1242
     28 C          59.3786   87.2114    8.6768 C.3     1  UNL1        0.1636
     29 O          59.8606   86.7439    7.3355 O.3     1  UNL1       -0.3502
     30 C          61.1282   85.9490    7.2293 C.3     1  UNL1        0.1618
     31 C          61.9138   85.6216    8.4644 C.3     1  UNL1        0.1039
     32 C          63.1814   84.8266    8.3582 C.3     1  UNL1        0.0241
@<TRIPOS>BOND
     1    23    24    1
     2    24    25    1
     3    24    21    1
     4    21    11    1
     5    11    12   ar
     6    12    13   ar
     7    13    14   ar
     8    14    15   ar
     9    15     1    1
    10     1     2   ar
    11     2     3   ar
    12     3     4   ar
    13     4     5   ar
    14     5    26    1
    15    26    27    1
    16    27    28    1
    17    28    29    1
    18    29    30    1
    19    30    31    1
    20    31    32    1
    21     5     6   ar
    22     6     7   ar
    23     7     8   ar
    24     8     9   ar
    25     9    10   ar
    26    15    16   ar
    27    16    17    1
    28    16    18   ar
    29    18    19   ar
    30    19    20   ar
    31    20    11   ar
    32    20    14   ar
    33    10     1   ar
    34     9     4   ar
    35    31    26    1
    36    21    22    1
@<TRIPOS>MOLECULE
*****
 32 36 0 0 0
SMALL
GASTEIGER

@<TRIPOS>ATOM
      1 C          63.9187   88.8617   13.9698 C.ar    1  UNL1        0.0039
      2 C          64.1902   87.4762   14.4765 C.ar    1  UNL1        0.0002
      3 C          63.7512   86.2857   13.6766 C.ar    1  UNL1        0.0029
      4 C          63.0406   86.4807   12.3700 C.ar    1  UNL1        0.0349
      5 C          62.6015   85.2900   11.5701 C.ar    1  UNL1        0.1535
      6 N          61.8909   85.4850   10.2636 N.ar    1  UNL1       -0.1329
      7 N          61.6193   86.8705    9.7570 N.ar    1  UNL1       -0.1452
      8 C          62.0583   88.0610   10.5569 C.ar    1  UNL1        0.1222
      9 C          62.7690   87.8661   11.8634 C.ar    1  UNL1        0.0237
     10 C          63.2080   89.0566   12.6633 C.ar    1  UNL1        0.0018
     11 C          66.9498   92.8496   14.2718 C.ar    1  UNL1        0.1704
     12 N          67.1762   92.0946   12.9956 N.ar    1  UNL1       -0.0621
     13 O          66.2394   90.9232   12.9776 O.2     1  UNL1       -0.3521
     14 C          65.4341   90.9543   14.2427 C.ar    1  UNL1        0.1788
     15 C          64.3577   90.0523   14.7697 C.ar    1  UNL1        0.0478
     16 C          63.7204   90.3408   16.0966 C.ar    1  UNL1        0.0607
     17 CL         62.6440   89.4388   16.6236 Cl      1  UNL1       -0.0821
     18 C          64.1594   91.5314   16.8965 C.ar    1  UNL1        0.0117
     19 C          65.2358   92.4334   16.3695 C.ar    1  UNL1        0.0069
     20 C          65.8732   92.1448   15.0426 C.ar    1  UNL1        0.0718
     21 N          67.6732   94.0913   14.7017 N.pl3   1  UNL1       -0.3171
     22 H          67.4279   94.9627   14.3148 H       1  UNL1        0.1482
     23 C          69.1873   92.6704   16.2633 C.3     1  UNL1        0.0212
     24 C          68.7701   94.0053   15.7212 C.3     1  UNL1        0.0706
     25 C          69.4498   95.2543   16.1987 C.3     1  UNL1        0.0212
     26 N          62.8731   83.9046   12.0768 N.pl3   1  UNL1       -0.2884
     27 C          62.3205   83.4686   13.4014 C.3     1  UNL1        0.1242
     28 C          62.5921   82.0831   13.9080 C.3     1  UNL1        0.1636
     29 O          63.4163   81.1336   13.0900 O.3     1  UNL1       -0.3502
     30 C          63.9689   81.5696   11.7654 C.3     1  UNL1        0.1618
     31 C          63.6973   82.9550   11.2588 C.3     1  UNL1        0.1039
     32 C          64.2499   83.3910    9.9341 C.3     1  UNL1        0.0241
@<TRIPOS>BOND
     1    23    24    1
     2    24    25    1
     3    24    21    1
     4    21    11    1
     5    11    12   ar
     6    12    13   ar
     7    13    14   ar
     8    14    15   ar
     9    15     1    1
    10     1     2   ar
    11     2     3   ar
    12     3     4   ar
    13     4     5   ar
    14     5    26    1
    15    26    27    1
    16    27    28    1
    17    28    29    1
    18    29    30    1
    19    30    31    1
    20    31    32    1
    21     5     6   ar
    22     6     7   ar
    23     7     8   ar
    24     8     9   ar
    25     9    10   ar
    26    15    16   ar
    27    16    17    1
    28    16    18   ar
    29    18    19   ar
    30    19    20   ar
    31    20    11   ar
    32    20    14   ar
    33    10     1   ar
    34     9     4   ar
    35    31    26    1
    36    21    22    1
