@<TRIPOS>MOLECULE
*****
 20 21 0 0 0
SMALL
GASTEIGER

@<TRIPOS>ATOM
      1 C          66.4232   93.6434   11.1073 C.2     1  UNL1        0.1535
      2 N          65.3354   92.7831   10.5359 N.2     1  UNL1       -0.2470
      3 C          64.7069   92.0201   11.6641 C.3     1  UNL1        0.1720
      4 C          63.5882   91.0216   11.7000 C.3     1  UNL1        0.1653
      5 O          62.8888   90.6329   10.4313 O.3     1  UNL1       -0.3798
      6 C          63.1687   90.4118   13.0048 C.3     1  UNL1        0.1688
      7 O          62.0500   89.4133   13.0407 O.3     1  UNL1       -0.3794
      8 C          63.8681   90.8006   14.2735 C.3     1  UNL1        0.1749
      9 O          64.9869   91.7992   14.2375 O.3     1  UNL1       -0.3402
     10 C          65.4063   92.4089   12.9328 C.3     1  UNL1        0.1938
     11 S          66.4670   93.4121   12.5887 S.3     1  UNL1       -0.0497
     12 H          62.1966   89.9830   10.6297 H       1  UNL1        0.2105
     13 H          61.7103   89.2759   12.1426 H       1  UNL1        0.2105
     14 N          67.3113   94.5720   10.3332 N.pl3   1  UNL1       -0.3135
     15 H          67.3606   95.5242   10.5782 H       1  UNL1        0.1487
     16 C          68.7339   92.6812    9.2604 C.3     1  UNL1        0.0230
     17 C          68.1242   94.0496    9.1860 C.3     1  UNL1        0.0887
     18 C          63.4487   90.1909   15.5782 C.3     1  UNL1        0.1742
     19 O          63.3898   88.6992   15.7244 O.3     1  UNL1       -0.3484
     20 C          63.0423   88.0886   17.0497 C.3     1  UNL1        0.1742
@<TRIPOS>BOND
     1    16    17    1
     2    17    14    1
     3    14     1    1
     4     1     2    2
     5     3     2    1
     6     3     4    1
     7     4     5    1
     8     4     6    1
     9     6     7    1
    10     6     8    1
    11     8    18    1
    12    18    19    1
    13    19    20    1
    14     8     9    1
    15    10     9    1
    16    10    11    1
    17    11     1    1
    18    10     3    1
    19    14    15    1
    20     5    12    1
    21     7    13    1
@<TRIPOS>MOLECULE
*****
 20 21 0 0 0
SMALL
GASTEIGER

@<TRIPOS>ATOM
      1 C          61.8115   89.6142   11.8529 C.2     1  UNL1        0.1535
      2 N          62.7521   89.8993   12.9860 N.2     1  UNL1       -0.2470
      3 C          63.7779   90.8806   12.5013 C.3     1  UNL1        0.1720
      4 C          64.9515   91.5230   13.1794 C.3     1  UNL1        0.1653
      5 O          65.2582   91.2016   14.6121 O.3     1  UNL1       -0.3798
      6 C          65.8185   92.4869   12.4248 C.3     1  UNL1        0.1688
      7 O          66.9921   93.1293   13.1029 O.3     1  UNL1       -0.3794
      8 C          65.5118   92.8083   10.9921 C.3     1  UNL1        0.1749
      9 O          64.3381   92.1658   10.3140 O.3     1  UNL1       -0.3402
     10 C          63.4711   91.2020   11.0686 C.3     1  UNL1        0.1938
     11 S          62.2559   90.4193   10.6679 S.3     1  UNL1       -0.0497
     12 H          66.0426   91.6977   14.8940 H       1  UNL1        0.2105
     13 H          67.0479   92.8153   14.0190 H       1  UNL1        0.2105
     14 N          60.6333   88.6868   11.8971 N.pl3   1  UNL1       -0.3135
     15 H          59.9649   88.7740   12.6146 H       1  UNL1        0.1487
     16 C          61.2551   86.3501   10.9469 C.3     1  UNL1        0.0230
     17 C          60.4736   87.6266   10.8481 C.3     1  UNL1        0.0887
     18 C          66.3787   93.7721   10.2375 C.3     1  UNL1        0.1742
     19 O          67.8693   93.6051   10.2458 O.3     1  UNL1       -0.3484
     20 C          68.5033   92.4888    9.4699 C.3     1  UNL1        0.1742
@<TRIPOS>BOND
     1    16    17    1
     2    17    14    1
     3    14     1    1
     4     1     2    2
     5     3     2    1
     6     3     4    1
     7     4     5    1
     8     4     6    1
     9     6     7    1
    10     6     8    1
    11     8    18    1
    12    18    19    1
    13    19    20    1
    14     8     9    1
    15    10     9    1
    16    10    11    1
    17    11     1    1
    18    10     3    1
    19    14    15    1
    20     5    12    1
    21     7    13    1
@<TRIPOS>MOLECULE
*****
 20 21 0 0 0
SMALL
GASTEIGER

@<TRIPOS>ATOM
      1 C          62.0688   87.0718   10.6637 C.2     1  UNL1        0.1535
      2 N          62.7037   87.2572   12.0100 N.2     1  UNL1       -0.2470
      3 C          63.0470   85.9011   12.5514 C.3     1  UNL1        0.1720
      4 C          63.6900   85.4661   13.8348 C.3     1  UNL1        0.1653
      5 O          64.1127   86.4898   14.8465 O.3     1  UNL1       -0.3798
      6 C          63.9102   84.0075   14.1067 C.3     1  UNL1        0.1688
      7 O          64.5532   83.5725   15.3902 O.3     1  UNL1       -0.3794
      8 C          63.4875   82.9838   13.0950 C.3     1  UNL1        0.1749
      9 O          62.8445   83.4189   11.8115 O.3     1  UNL1       -0.3402
     10 C          62.6243   84.8775   11.5397 C.3     1  UNL1        0.1938
     11 S          62.0197   85.6010   10.3730 S.3     1  UNL1       -0.0497
     12 H          64.5077   86.0438   15.6121 H       1  UNL1        0.2105
     13 H          64.7631   84.3525   15.9272 H       1  UNL1        0.2105
     14 N          61.5704   88.1651    9.7657 N.pl3   1  UNL1       -0.3135
     15 H          61.2691   87.9532    8.8527 H       1  UNL1        0.1487
     16 C          62.7810   90.4104   10.2586 C.3     1  UNL1        0.0230
     17 C          61.5311   89.5811   10.2588 C.3     1  UNL1        0.0887
     18 C          63.7077   81.5252   13.3668 C.3     1  UNL1        0.1742
     19 O          62.7484   80.7718   14.2397 O.3     1  UNL1       -0.3484
     20 C          61.2752   81.0347   14.1364 C.3     1  UNL1        0.1742
@<TRIPOS>BOND
     1    16    17    1
     2    17    14    1
     3    14     1    1
     4     1     2    2
     5     3     2    1
     6     3     4    1
     7     4     5    1
     8     4     6    1
     9     6     7    1
    10     6     8    1
    11     8    18    1
    12    18    19    1
    13    19    20    1
    14     8     9    1
    15    10     9    1
    16    10    11    1
    17    11     1    1
    18    10     3    1
    19    14    15    1
    20     5    12    1
    21     7    13    1
@<TRIPOS>MOLECULE
*****
 20 21 0 0 0
SMALL
GASTEIGER

@<TRIPOS>ATOM
      1 C          62.0532   90.3114   10.2992 C.2     1  UNL1        0.1535
      2 N          63.0601   91.3467    9.8939 N.2     1  UNL1       -0.2470
      3 C          63.9678   91.5931   11.0625 C.3     1  UNL1        0.1720
      4 C          65.1427   92.5074   11.2455 C.3     1  UNL1        0.1653
      5 O          65.5886   93.3905   10.1180 O.3     1  UNL1       -0.3798
      6 C          65.8717   92.5387   12.5562 C.3     1  UNL1        0.1688
      7 O          67.0466   93.4530   12.7392 O.3     1  UNL1       -0.3794
      8 C          65.4257   91.6555   13.6837 C.3     1  UNL1        0.1749
      9 O          64.2508   90.7412   13.5005 O.3     1  UNL1       -0.3402
     10 C          63.5218   90.7100   12.1900 C.3     1  UNL1        0.1938
     11 S          62.3386   89.9179   11.7182 S.3     1  UNL1       -0.0497
     12 H          66.3549   93.9137   10.4008 H       1  UNL1        0.2105
     13 H          67.2002   93.9499   11.9205 H       1  UNL1        0.2105
     14 N          60.9540   89.7655    9.4368 N.pl3   1  UNL1       -0.3135
     15 H          60.5894   90.3089    8.7013 H       1  UNL1        0.1487
     16 C          61.1418   87.1868    9.1823 C.3     1  UNL1        0.0230
     17 C          60.4102   88.3916    9.6951 C.3     1  UNL1        0.0887
     18 C          66.1547   91.6868   14.9942 C.3     1  UNL1        0.1742
     19 O          67.6483   91.5518   15.0251 O.3     1  UNL1       -0.3484
     20 C          68.4619   92.4272   15.9315 C.3     1  UNL1        0.1742
@<TRIPOS>BOND
     1    16    17    1
     2    17    14    1
     3    14     1    1
     4     1     2    2
     5     3     2    1
     6     3     4    1
     7     4     5    1
     8     4     6    1
     9     6     7    1
    10     6     8    1
    11     8    18    1
    12    18    19    1
    13    19    20    1
    14     8     9    1
    15    10     9    1
    16    10    11    1
    17    11     1    1
    18    10     3    1
    19    14    15    1
    20     5    12    1
    21     7    13    1
@<TRIPOS>MOLECULE
*****
 20 21 0 0 0
SMALL
GASTEIGER

@<TRIPOS>ATOM
      1 C          65.7704   92.0891   14.9830 C.2     1  UNL1        0.1535
      2 N          65.8039   92.6533   13.5935 N.2     1  UNL1       -0.2470
      3 C          64.7650   91.9413   12.7789 C.3     1  UNL1        0.1720
      4 C          64.3469   92.0776   11.3448 C.3     1  UNL1        0.1653
      5 O          65.0225   93.0819   10.4588 O.3     1  UNL1       -0.3798
      6 C          63.2532   91.2096   10.7966 C.3     1  UNL1        0.1688
      7 O          62.8351   91.3459    9.3625 O.3     1  UNL1       -0.3794
      8 C          62.5776   90.2053   11.6826 C.3     1  UNL1        0.1749
      9 O          62.9957   90.0690   13.1167 O.3     1  UNL1       -0.3402
     10 C          64.0894   90.9369   13.6648 C.3     1  UNL1        0.1938
     11 S          64.7107   91.0284   15.0270 S.3     1  UNL1       -0.0497
     12 H          64.6360   93.0409    9.5701 H       1  UNL1        0.2105
     13 H          63.3678   92.0344    8.9345 H       1  UNL1        0.2105
     14 N          66.6432   92.5116   16.1274 N.pl3   1  UNL1       -0.3135
     15 H          66.2377   92.8737   16.9482 H       1  UNL1        0.1487
     16 C          68.9757   93.5968   15.7646 C.3     1  UNL1        0.0230
     17 C          68.1338   92.3822   16.0214 C.3     1  UNL1        0.0887
     18 C          61.4839   89.3373   11.1344 C.3     1  UNL1        0.1742
     19 O          61.4969   88.9379    9.6887 O.3     1  UNL1       -0.3484
     20 C          60.2313   88.9889    8.8851 C.3     1  UNL1        0.1742
@<TRIPOS>BOND
     1    16    17    1
     2    17    14    1
     3    14     1    1
     4     1     2    2
     5     3     2    1
     6     3     4    1
     7     4     5    1
     8     4     6    1
     9     6     7    1
    10     6     8    1
    11     8    18    1
    12    18    19    1
    13    19    20    1
    14     8     9    1
    15    10     9    1
    16    10    11    1
    17    11     1    1
    18    10     3    1
    19    14    15    1
    20     5    12    1
    21     7    13    1
@<TRIPOS>MOLECULE
*****
 20 21 0 0 0
SMALL
GASTEIGER

@<TRIPOS>ATOM
      1 C          64.5757   90.8320   14.2203 C.2     1  UNL1        0.1535
      2 N          63.9278   91.3265   12.9611 N.2     1  UNL1       -0.2470
      3 C          63.3285   90.1471   12.2540 C.3     1  UNL1        0.1720
      4 C          62.5660   90.0292   10.9678 C.3     1  UNL1        0.1653
      5 O          62.2884   91.2526   10.1455 O.3     1  UNL1       -0.3798
      6 C          62.0810   88.6877   10.5036 C.3     1  UNL1        0.1688
      7 O          61.3185   88.5698    9.2174 O.3     1  UNL1       -0.3794
      8 C          62.3586   87.4642   11.3259 C.3     1  UNL1        0.1749
      9 O          63.1212   87.5823   12.6122 O.3     1  UNL1       -0.3402
     10 C          63.6061   88.9237   13.0763 C.3     1  UNL1        0.1938
     11 S          64.3769   89.3470   14.2915 S.3     1  UNL1       -0.0497
     12 H          61.7895   91.0027    9.3521 H       1  UNL1        0.2105
     13 H          61.2271   89.4472    8.8140 H       1  UNL1        0.2105
     14 N          65.2959   91.6746   15.2309 N.pl3   1  UNL1       -0.3135
     15 H          64.8006   92.0723   15.9830 H       1  UNL1        0.1487
     16 C          67.4952   92.7357   16.1182 C.3     1  UNL1        0.0230
     17 C          66.7709   91.9114   15.0955 C.3     1  UNL1        0.0887
     18 C          61.8737   86.1228   10.8618 C.3     1  UNL1        0.1742
     19 O          61.7137   85.8492    9.3957 O.3     1  UNL1       -0.3484
     20 C          62.8997   85.4348    8.5763 C.3     1  UNL1        0.1742
@<TRIPOS>BOND
     1    16    17    1
     2    17    14    1
     3    14     1    1
     4     1     2    2
     5     3     2    1
     6     3     4    1
     7     4     5    1
     8     4     6    1
     9     6     7    1
    10     6     8    1
    11     8    18    1
    12    18    19    1
    13    19    20    1
    14     8     9    1
    15    10     9    1
    16    10    11    1
    17    11     1    1
    18    10     3    1
    19    14    15    1
    20     5    12    1
    21     7    13    1
@<TRIPOS>MOLECULE
*****
 20 21 0 0 0
SMALL
GASTEIGER

@<TRIPOS>ATOM
      1 C          59.7900   92.5575    2.9949 C.2     1  UNL1        0.1535
      2 N          61.1351   91.9693    3.3025 N.2     1  UNL1       -0.2470
      3 C          62.1216   92.5299    2.3214 C.3     1  UNL1        0.1720
      4 C          63.5945   92.3100    2.1422 C.3     1  UNL1        0.1653
      5 O          64.3300   91.3753    3.0562 O.3     1  UNL1       -0.3798
      6 C          64.3320   93.0247    1.0489 C.3     1  UNL1        0.1688
      7 O          65.8049   92.8048    0.8697 O.3     1  UNL1       -0.3794
      8 C          63.5966   93.9594    0.1348 C.3     1  UNL1        0.1749
      9 O          62.1236   94.1793    0.3141 O.3     1  UNL1       -0.3402
     10 C          61.3862   93.4646    1.4073 C.3     1  UNL1        0.1938
     11 S          59.9452   93.4816    1.8236 S.3     1  UNL1       -0.0497
     12 H          65.2666   91.3480    2.8053 H       1  UNL1        0.2105
     13 H          66.1217   92.1768    1.5376 H       1  UNL1        0.2105
     14 N          58.5138   92.2718    3.7295 N.pl3   1  UNL1       -0.3135
     15 H          57.6504   92.3407    3.2615 H       1  UNL1        0.1487
     16 C          58.7897   90.4508    5.5620 C.3     1  UNL1        0.0230
     17 C          58.5531   91.8812    5.1772 C.3     1  UNL1        0.0887
     18 C          64.3340   94.6742   -0.9584 C.3     1  UNL1        0.1742
     19 O          65.5132   95.5398   -0.6262 O.3     1  UNL1       -0.3484
     20 C          65.3971   96.5882    0.4402 C.3     1  UNL1        0.1742
@<TRIPOS>BOND
     1    16    17    1
     2    17    14    1
     3    14     1    1
     4     1     2    2
     5     3     2    1
     6     3     4    1
     7     4     5    1
     8     4     6    1
     9     6     7    1
    10     6     8    1
    11     8    18    1
    12    18    19    1
    13    19    20    1
    14     8     9    1
    15    10     9    1
    16    10    11    1
    17    11     1    1
    18    10     3    1
    19    14    15    1
    20     5    12    1
    21     7    13    1
@<TRIPOS>MOLECULE
*****
 20 21 0 0 0
SMALL
GASTEIGER

@<TRIPOS>ATOM
      1 C          60.8388   89.2078    9.8054 C.2     1  UNL1        0.1535
      2 N          61.8822   90.2728    9.6407 N.2     1  UNL1       -0.2470
      3 C          62.5175   90.5103   10.9786 C.3     1  UNL1        0.1720
      4 C          63.6044   91.4440   11.4220 C.3     1  UNL1        0.1653
      5 O          64.2552   92.3622   10.4303 O.3     1  UNL1       -0.3798
      6 C          64.0407   91.4595   12.8571 C.3     1  UNL1        0.1688
      7 O          65.1276   92.3933   13.3005 O.3     1  UNL1       -0.3794
      8 C          63.3899   90.5413   13.8488 C.3     1  UNL1        0.1749
      9 O          62.3029   89.6075   13.4053 O.3     1  UNL1       -0.3402
     10 C          61.8667   89.5921   11.9702 C.3     1  UNL1        0.1938
     11 S          60.8293   88.7871   11.2451 S.3     1  UNL1       -0.0497
     12 H          64.9316   92.8943   10.8778 H       1  UNL1        0.2105
     13 H          65.4374   92.9123   12.5419 H       1  UNL1        0.2105
     14 N          59.9594   88.6598    8.7208 N.pl3   1  UNL1       -0.3135
     15 H          59.6591   89.2446    7.9880 H       1  UNL1        0.1487
     16 C          60.5282   86.1413    8.4315 C.3     1  UNL1        0.0230
     17 C          59.5375   87.2207    8.7528 C.3     1  UNL1        0.0887
     18 C          63.8261   90.5568   15.2838 C.3     1  UNL1        0.1742
     19 O          62.9374   89.9772   16.3441 O.3     1  UNL1       -0.3484
     20 C          63.1366   88.5616   16.7983 C.3     1  UNL1        0.1742
@<TRIPOS>BOND
     1    16    17    1
     2    17    14    1
     3    14     1    1
     4     1     2    2
     5     3     2    1
     6     3     4    1
     7     4     5    1
     8     4     6    1
     9     6     7    1
    10     6     8    1
    11     8    18    1
    12    18    19    1
    13    19    20    1
    14     8     9    1
    15    10     9    1
    16    10    11    1
    17    11     1    1
    18    10     3    1
    19    14    15    1
    20     5    12    1
    21     7    13    1
@<TRIPOS>MOLECULE
*****
 20 21 0 0 0
SMALL
GASTEIGER

@<TRIPOS>ATOM
      1 C          62.8442   85.1364   11.8112 C.2     1  UNL1        0.1535
      2 N          62.6188   86.5505   12.2578 N.2     1  UNL1       -0.2470
      3 C          61.8089   87.2459   11.2039 C.3     1  UNL1        0.1720
      4 C          61.2864   88.6483   11.1022 C.3     1  UNL1        0.1653
      5 O          61.5615   89.6326   12.2001 O.3     1  UNL1       -0.3798
      6 C          60.4888   89.0663    9.9025 C.3     1  UNL1        0.1688
      7 O          59.9663   90.4686    9.8008 O.3     1  UNL1       -0.3794
      8 C          60.2138   88.0819    8.8046 C.3     1  UNL1        0.1749
      9 O          60.7363   86.6795    8.9064 O.3     1  UNL1       -0.3402
     10 C          61.5339   86.2616   10.1060 C.3     1  UNL1        0.1938
     11 S          62.1737   84.9578   10.4814 S.3     1  UNL1       -0.0497
     12 H          61.1561   90.4856   11.9787 H       1  UNL1        0.2105
     13 H          60.2313   90.9703   10.5876 H       1  UNL1        0.2105
     14 N          63.6064   84.0854   12.5626 N.pl3   1  UNL1       -0.3135
     15 H          64.5898   84.0662   12.5209 H       1  UNL1        0.1487
     16 C          62.3591   81.8123   12.7272 C.3     1  UNL1        0.0230
     17 C          62.8702   83.0637   13.3775 C.3     1  UNL1        0.0887
     18 C          59.4162   88.4999    7.6050 C.3     1  UNL1        0.1742
     19 O          59.7888   89.7430    6.8526 O.3     1  UNL1       -0.3484
     20 C          58.8986   90.2522    5.7580 C.3     1  UNL1        0.1742
@<TRIPOS>BOND
     1    16    17    1
     2    17    14    1
     3    14     1    1
     4     1     2    2
     5     3     2    1
     6     3     4    1
     7     4     5    1
     8     4     6    1
     9     6     7    1
    10     6     8    1
    11     8    18    1
    12    18    19    1
    13    19    20    1
    14     8     9    1
    15    10     9    1
    16    10    11    1
    17    11     1    1
    18    10     3    1
    19    14    15    1
    20     5    12    1
    21     7    13    1
