@<TRIPOS>MOLECULE
*****
 41 44 0 0 0
SMALL
GASTEIGER

@<TRIPOS>ATOM
      1 C          62.8556   90.8003   11.1311 C.2     1  UNL1        0.2246
      2 O          63.5762   90.5448    9.8406 O.2     1  UNL1       -0.2750
      3 N          61.6729   89.9586   11.5092 N.am    1  UNL1       -0.3022
      4 H          61.2000   90.1263   12.3562 H       1  UNL1        0.1497
      5 C          61.2109   88.8614   10.5966 C.3     1  UNL1        0.0938
      6 C          60.2462   89.1638    9.4886 C.3     1  UNL1        0.0245
      7 C          59.7842   88.0666    8.5761 C.3     1  UNL1        0.0067
      8 C          60.2869   86.6670    8.7717 C.3     1  UNL1        0.0261
      9 C          61.2516   86.3645    9.8797 C.ar    1  UNL1       -0.0249
     10 C          61.7543   84.9649   10.0753 C.ar    1  UNL1       -0.0075
     11 C          62.7190   84.6624   11.1834 C.ar    1  UNL1       -0.0067
     12 C          63.1811   85.7597   12.0959 C.ar    1  UNL1       -0.0032
     13 C          62.6784   87.1593   11.9003 C.ar    1  UNL1       -0.0033
     14 C          61.7136   87.4617   10.7922 C.ar    1  UNL1       -0.0085
     15 C          63.2218   83.2628   11.3789 C.3     1  UNL1        0.0956
     16 N          63.9740   82.9034   12.6259 N.3     1  UNL1       -0.2937
     17 H          63.7933   83.6448   13.3028 H       1  UNL1        0.1236
     18 C          63.6953   81.6042   13.3218 C.3     1  UNL1        0.0687
     19 C          62.2987   81.2700   13.7550 C.3     1  UNL1        0.0145
     20 C          62.3718   79.9791   12.9946 C.3     1  UNL1        0.0014
     21 C          62.2256   82.5608   14.5155 C.3     1  UNL1        0.0014
     22 C          60.9020   80.9358   14.1883 C.3     1  UNL1        0.0014
     23 C          63.3176   91.8975   12.0436 C.3     1  UNL1        0.1120
     24 N          65.6964   92.2462   13.0284 N.3     1  UNL1       -0.1459
     25 C          66.7184   91.9597   14.0884 C.3     1  UNL1        0.1175
     26 C          66.3835   91.0380   15.2234 C.3     1  UNL1        0.1086
     27 N          65.0267   90.4028   15.2985 N.am    1  UNL1       -0.3018
     28 C          64.0048   90.6893   14.2386 C.2     1  UNL1        0.2392
     29 O          62.6479   90.0541   14.3137 O.2     1  UNL1       -0.2736
     30 C          64.3396   91.6110   13.1035 C.3     1  UNL1        0.1645
     31 H          64.8070   89.7978   16.0435 H       1  UNL1        0.1495
     32 S          66.0312   93.1679   11.8934 S.O2    1  UNL1        0.0637
     33 O          65.8185   94.3506   12.7911 O.2     1  UNL1       -0.1528
     34 O          66.2439   91.9852   10.9957 O.2     1  UNL1       -0.1528
     35 C          67.3705   96.8547    7.3532 C.3     1  UNL1        0.0310
     36 C          67.0357   95.9330    8.4882 C.ar    1  UNL1       -0.0218
     37 C          66.2552   96.4430    9.6632 C.ar    1  UNL1       -0.0029
     38 C          65.9203   95.5213   10.7983 C.ar    1  UNL1        0.0196
     39 C          66.3660   94.0896   10.7584 C.ar    1  UNL1        0.1222
     40 C          67.1465   93.5796    9.5833 C.ar    1  UNL1        0.0196
     41 C          67.4813   94.5013    8.4482 C.ar    1  UNL1       -0.0029
@<TRIPOS>BOND
     1    35    36    1
     2    36    37   ar
     3    37    38   ar
     4    38    39   ar
     5    39    32    1
     6    32    33    2
     7    32    34    2
     8    32    24    1
     9    24    25    1
    10    25    26    1
    11    26    27    1
    12    27    28   am
    13    28    29    2
    14    28    30    1
    15    30    23    1
    16    23     1    1
    17     1     2    2
    18     1     3   am
    19     5     3    1
    20     5     6    1
    21     6     7    1
    22     7     8    1
    23     8     9    1
    24     9    10   ar
    25    10    11   ar
    26    11    15    1
    27    15    16    1
    28    16    18    1
    29    18    19    1
    30    19    20    1
    31    19    21    1
    32    19    22    1
    33    11    12   ar
    34    12    13   ar
    35    13    14   ar
    36    39    40   ar
    37    40    41   ar
    38    41    36   ar
    39    30    24    1
    40    14     5    1
    41    14     9   ar
    42    27    31    1
    43     3     4    1
    44    16    17    1
@<TRIPOS>MOLECULE
*****
 41 44 0 0 0
SMALL
GASTEIGER

@<TRIPOS>ATOM
      1 C          62.5102   89.2716   12.6750 C.2     1  UNL1        0.2246
      2 O          63.6437   88.3016   12.8310 O.2     1  UNL1       -0.2750
      3 N          62.7274   90.7297   12.9518 N.am    1  UNL1       -0.3022
      4 H          61.9834   91.3664   12.8494 H       1  UNL1        0.1497
      5 C          64.0781   91.2179   13.3847 C.3     1  UNL1        0.0938
      6 C          64.4776   91.1370   14.8283 C.3     1  UNL1        0.0245
      7 C          65.8283   91.6251   15.2611 C.3     1  UNL1        0.0067
      8 C          66.7795   92.1941   14.2504 C.3     1  UNL1        0.0261
      9 C          66.3800   92.2749   12.8069 C.ar    1  UNL1       -0.0249
     10 C          67.3312   92.8439   11.7962 C.ar    1  UNL1       -0.0075
     11 C          66.9317   92.9247   10.3526 C.ar    1  UNL1       -0.0067
     12 C          65.5810   92.4366    9.9197 C.ar    1  UNL1       -0.0032
     13 C          64.6298   91.8677   10.9304 C.ar    1  UNL1       -0.0033
     14 C          65.0293   91.7868   12.3740 C.ar    1  UNL1       -0.0085
     15 C          67.8829   93.4937    9.3419 C.3     1  UNL1        0.0956
     16 N          67.6855   94.8892    8.8287 N.3     1  UNL1       -0.2937
     17 H          66.9650   94.8390    8.1085 H       1  UNL1        0.1236
     18 C          67.2808   95.9844    9.7704 C.3     1  UNL1        0.0687
     19 C          65.8466   96.4169    9.8457 C.3     1  UNL1        0.0145
     20 C          65.8898   96.3003   11.3405 C.3     1  UNL1        0.0014
     21 C          65.8033   96.5336    8.3509 C.3     1  UNL1        0.0014
     22 C          64.4122   96.8495    9.9209 C.3     1  UNL1        0.0014
     23 C          61.1595   88.7835   12.2421 C.3     1  UNL1        0.1120
     24 N          61.0850   87.6998    9.8819 N.3     1  UNL1       -0.1459
     25 C          60.6929   87.7628    8.4354 C.3     1  UNL1        0.1175
     26 C          59.9833   88.9722    7.9026 C.3     1  UNL1        0.1086
     27 N          59.6658   90.1186    8.8163 N.am    1  UNL1       -0.3018
     28 C          60.0579   90.0557   10.2628 C.2     1  UNL1        0.2392
     29 O          59.7403   91.2022   11.1765 O.2     1  UNL1       -0.2736
     30 C          60.7674   88.8464   10.7956 C.3     1  UNL1        0.1645
     31 H          59.2000   90.9124    8.4666 H       1  UNL1        0.1495
     32 S          61.7946   86.4905   10.4148 S.O2    1  UNL1        0.0637
     33 O          60.8431   86.4427   11.5733 O.2     1  UNL1       -0.1528
     34 O          62.7461   86.5383    9.2562 O.2     1  UNL1       -0.1528
     35 C          64.6329   81.6531   12.5461 C.3     1  UNL1        0.0310
     36 C          63.9233   82.8624   12.0133 C.ar    1  UNL1       -0.0218
     37 C          63.9887   83.1863   10.5502 C.ar    1  UNL1       -0.0029
     38 C          63.2791   84.3957   10.0173 C.ar    1  UNL1        0.0196
     39 C          62.5042   85.2812   10.9476 C.ar    1  UNL1        0.1222
     40 C          62.4388   84.9572   12.4108 C.ar    1  UNL1        0.0196
     41 C          63.1484   83.7479   12.9436 C.ar    1  UNL1       -0.0029
@<TRIPOS>BOND
     1    35    36    1
     2    36    37   ar
     3    37    38   ar
     4    38    39   ar
     5    39    32    1
     6    32    33    2
     7    32    34    2
     8    32    24    1
     9    24    25    1
    10    25    26    1
    11    26    27    1
    12    27    28   am
    13    28    29    2
    14    28    30    1
    15    30    23    1
    16    23     1    1
    17     1     2    2
    18     1     3   am
    19     5     3    1
    20     5     6    1
    21     6     7    1
    22     7     8    1
    23     8     9    1
    24     9    10   ar
    25    10    11   ar
    26    11    15    1
    27    15    16    1
    28    16    18    1
    29    18    19    1
    30    19    20    1
    31    19    21    1
    32    19    22    1
    33    11    12   ar
    34    12    13   ar
    35    13    14   ar
    36    39    40   ar
    37    40    41   ar
    38    41    36   ar
    39    30    24    1
    40    14     5    1
    41    14     9   ar
    42    27    31    1
    43     3     4    1
    44    16    17    1
@<TRIPOS>MOLECULE
*****
 41 44 0 0 0
SMALL
GASTEIGER

@<TRIPOS>ATOM
      1 C          62.8984   90.7268   11.2384 C.2     1  UNL1        0.2246
      2 O          63.5280   90.6515    9.8790 O.2     1  UNL1       -0.2750
      3 N          61.8352   89.7430   11.6281 N.am    1  UNL1       -0.3022
      4 H          61.4220   89.7924   12.5203 H       1  UNL1        0.1497
      5 C          61.4016   88.6839   10.6582 C.3     1  UNL1        0.0938
      6 C          60.5119   89.0420    9.5050 C.3     1  UNL1        0.0245
      7 C          60.0783   87.9830    8.5353 C.3     1  UNL1        0.0067
      8 C          60.5346   86.5659    8.7188 C.3     1  UNL1        0.0261
      9 C          61.4243   86.2078    9.8720 C.ar    1  UNL1       -0.0249
     10 C          61.8806   84.7907   10.0556 C.ar    1  UNL1       -0.0075
     11 C          62.7703   84.4326   11.2088 C.ar    1  UNL1       -0.0067
     12 C          63.2039   85.4917   12.1787 C.ar    1  UNL1       -0.0032
     13 C          62.7477   86.9088   11.9951 C.ar    1  UNL1       -0.0033
     14 C          61.8579   87.2668   10.8418 C.ar    1  UNL1       -0.0085
     15 C          63.2265   83.0155   11.3924 C.3     1  UNL1        0.0956
     16 N          64.1061   82.6551   12.5527 N.3     1  UNL1       -0.2937
     17 H          64.1392   83.4724   13.1621 H       1  UNL1        0.1236
     18 C          63.7596   81.4817   13.4204 C.3     1  UNL1        0.0687
     19 C          62.3283   81.2088   13.7763 C.3     1  UNL1        0.0145
     20 C          62.3829   79.9213   13.0085 C.3     1  UNL1        0.0014
     21 C          62.2737   82.4962   14.5440 C.3     1  UNL1        0.0014
     22 C          60.8968   80.9359   14.1322 C.3     1  UNL1        0.0014
     23 C          63.3320   91.7858   12.2081 C.3     1  UNL1        0.1120
     24 N          65.5886   91.3792   13.4299 N.3     1  UNL1       -0.1459
     25 C          67.0465   91.6870   13.6020 C.3     1  UNL1        0.1175
     26 C          67.7059   92.7093   12.7243 C.3     1  UNL1        0.1086
     27 N          66.9073   93.4237   11.6746 N.am    1  UNL1       -0.3018
     28 C          65.4493   93.1158   11.5026 C.2     1  UNL1        0.2392
     29 O          64.6508   93.8303   10.4528 O.2     1  UNL1       -0.2736
     30 C          64.7900   92.0936   12.3802 C.3     1  UNL1        0.1645
     31 H          67.3401   94.0946   11.0986 H       1  UNL1        0.1495
     32 S          64.9292   90.3570   14.3076 S.O2    1  UNL1        0.0637
     33 O          64.7278   89.4656   13.1181 O.2     1  UNL1       -0.1528
     34 O          65.1306   91.2483   15.4970 O.2     1  UNL1       -0.1528
     35 C          62.2917   86.2680   17.8181 C.3     1  UNL1        0.0310
     36 C          62.9511   87.2902   16.9404 C.ar    1  UNL1       -0.0218
     37 C          62.7660   88.7518   17.2221 C.ar    1  UNL1       -0.0029
     38 C          63.4254   89.7742   16.3444 C.ar    1  UNL1        0.0196
     39 C          64.2698   89.3347   15.1852 C.ar    1  UNL1        0.1222
     40 C          64.4549   87.8730   14.9036 C.ar    1  UNL1        0.0196
     41 C          63.7955   86.8508   15.7812 C.ar    1  UNL1       -0.0029
@<TRIPOS>BOND
     1    35    36    1
     2    36    37   ar
     3    37    38   ar
     4    38    39   ar
     5    39    32    1
     6    32    33    2
     7    32    34    2
     8    32    24    1
     9    24    25    1
    10    25    26    1
    11    26    27    1
    12    27    28   am
    13    28    29    2
    14    28    30    1
    15    30    23    1
    16    23     1    1
    17     1     2    2
    18     1     3   am
    19     5     3    1
    20     5     6    1
    21     6     7    1
    22     7     8    1
    23     8     9    1
    24     9    10   ar
    25    10    11   ar
    26    11    15    1
    27    15    16    1
    28    16    18    1
    29    18    19    1
    30    19    20    1
    31    19    21    1
    32    19    22    1
    33    11    12   ar
    34    12    13   ar
    35    13    14   ar
    36    39    40   ar
    37    40    41   ar
    38    41    36   ar
    39    30    24    1
    40    14     5    1
    41    14     9   ar
    42    27    31    1
    43     3     4    1
    44    16    17    1
@<TRIPOS>MOLECULE
*****
 41 44 0 0 0
SMALL
GASTEIGER

@<TRIPOS>ATOM
      1 C          63.7941   90.6640   12.0260 C.2     1  UNL1        0.2246
      2 O          64.2096   90.3989   10.6092 O.2     1  UNL1       -0.2750
      3 N          63.0330   89.6227   12.7917 N.am    1  UNL1       -0.3022
      4 H          62.7603   89.7967   13.7216 H       1  UNL1        0.1497
      5 C          62.6874   88.3162   12.1407 C.3     1  UNL1        0.0938
      6 C          63.2612   87.0373   12.6745 C.3     1  UNL1        0.0245
      7 C          62.9157   85.7309   12.0235 C.3     1  UNL1        0.0067
      8 C          61.9963   85.7035   10.8386 C.3     1  UNL1        0.0261
      9 C          61.4225   86.9824   10.3047 C.ar    1  UNL1       -0.0249
     10 C          60.5031   86.9549    9.1198 C.ar    1  UNL1       -0.0075
     11 C          59.9293   88.2338    8.5860 C.ar    1  UNL1       -0.0067
     12 C          60.2748   89.5403    9.2370 C.ar    1  UNL1       -0.0032
     13 C          61.1942   89.5678   10.4219 C.ar    1  UNL1       -0.0033
     14 C          61.7680   88.2888   10.9558 C.ar    1  UNL1       -0.0085
     15 C          59.0099   88.2064    7.4011 C.3     1  UNL1        0.0956
     16 N          59.2929   89.0756    6.2119 N.3     1  UNL1       -0.2937
     17 H          59.1999   88.4842    5.3861 H       1  UNL1        0.1236
     18 C          58.4628   90.3000    5.9632 C.3     1  UNL1        0.0687
     19 C          58.9426   91.3495    5.0050 C.3     1  UNL1        0.0145
     20 C          57.5265   91.7874    4.7755 C.3     1  UNL1        0.0014
     21 C          60.3588   90.9116    5.2345 C.3     1  UNL1        0.0014
     22 C          59.4225   92.3991    4.0467 C.3     1  UNL1        0.0014
     23 C          64.1396   91.9705   12.6770 C.3     1  UNL1        0.1120
     24 N          66.4933   92.9504   13.1769 N.3     1  UNL1       -0.1459
     25 C          67.6968   93.0499   14.0667 C.3     1  UNL1        0.1175
     26 C          67.7502   92.2688   15.3462 C.3     1  UNL1        0.1086
     27 N          66.6001   91.3883   15.7359 N.am    1  UNL1       -0.3018
     28 C          65.3965   91.2889   14.8462 C.2     1  UNL1        0.2392
     29 O          64.2464   90.4083   15.2360 O.2     1  UNL1       -0.2736
     30 C          65.3431   92.0699   13.5667 C.3     1  UNL1        0.1645
     31 H          66.6351   90.8757   16.5757 H       1  UNL1        0.1495
     32 S          66.4399   93.7315   11.8974 S.O2    1  UNL1        0.0637
     33 O          66.7565   92.4859   11.1239 O.2     1  UNL1       -0.1528
     34 O          66.1233   94.9770   12.6710 O.2     1  UNL1       -0.1528
     35 C          66.2264   96.8556    6.7795 C.3     1  UNL1        0.0310
     36 C          66.2798   96.0746    8.0589 C.ar    1  UNL1       -0.0218
     37 C          65.4355   96.4901    9.2270 C.ar    1  UNL1       -0.0029
     38 C          65.4888   95.7090   10.5066 C.ar    1  UNL1        0.0196
     39 C          66.3865   94.5125   10.6180 C.ar    1  UNL1        0.1222
     40 C          67.2308   94.0970    9.4498 C.ar    1  UNL1        0.0196
     41 C          67.1774   94.8780    8.1703 C.ar    1  UNL1       -0.0029
@<TRIPOS>BOND
     1    35    36    1
     2    36    37   ar
     3    37    38   ar
     4    38    39   ar
     5    39    32    1
     6    32    33    2
     7    32    34    2
     8    32    24    1
     9    24    25    1
    10    25    26    1
    11    26    27    1
    12    27    28   am
    13    28    29    2
    14    28    30    1
    15    30    23    1
    16    23     1    1
    17     1     2    2
    18     1     3   am
    19     5     3    1
    20     5     6    1
    21     6     7    1
    22     7     8    1
    23     8     9    1
    24     9    10   ar
    25    10    11   ar
    26    11    15    1
    27    15    16    1
    28    16    18    1
    29    18    19    1
    30    19    20    1
    31    19    21    1
    32    19    22    1
    33    11    12   ar
    34    12    13   ar
    35    13    14   ar
    36    39    40   ar
    37    40    41   ar
    38    41    36   ar
    39    30    24    1
    40    14     5    1
    41    14     9   ar
    42    27    31    1
    43     3     4    1
    44    16    17    1
@<TRIPOS>MOLECULE
*****
 41 44 0 0 0
SMALL
GASTEIGER

@<TRIPOS>ATOM
      1 C          63.4527   84.3620   11.0138 C.2     1  UNL1        0.2246
      2 O          63.8251   84.4283    9.5622 O.2     1  UNL1       -0.2750
      3 N          62.4289   85.3071   11.5693 N.am    1  UNL1       -0.3022
      4 H          62.1845   85.2636   12.5220 H       1  UNL1        0.1497
      5 C          61.7775   86.3185   10.6733 C.3     1  UNL1        0.0938
      6 C          60.7540   85.8809    9.6679 C.3     1  UNL1        0.0245
      7 C          60.1026   86.8923    8.7720 C.3     1  UNL1        0.0067
      8 C          60.4748   88.3413    8.8813 C.3     1  UNL1        0.0261
      9 C          61.4984   88.7788    9.8867 C.ar    1  UNL1       -0.0249
     10 C          61.8706   90.2278    9.9961 C.ar    1  UNL1       -0.0075
     11 C          62.8942   90.6654   11.0014 C.ar    1  UNL1       -0.0067
     12 C          63.5456   89.6540   11.8975 C.ar    1  UNL1       -0.0032
     13 C          63.1734   88.2050   11.7881 C.ar    1  UNL1       -0.0033
     14 C          62.1498   87.7675   10.7827 C.ar    1  UNL1       -0.0085
     15 C          63.2664   92.1143   11.1108 C.3     1  UNL1        0.0956
     16 N          64.5677   92.5993   10.5439 N.3     1  UNL1       -0.2937
     17 H          64.4826   93.6098   10.4339 H       1  UNL1        0.1236
     18 C          65.8478   92.3506   11.2851 C.3     1  UNL1        0.0687
     19 C          66.1764   93.1576   12.5061 C.3     1  UNL1        0.0145
     20 C          66.1522   91.9093   13.3375 C.3     1  UNL1        0.0014
     21 C          66.2006   94.4058   11.6747 C.3     1  UNL1        0.0014
     22 C          66.5049   93.9646   13.7272 C.3     1  UNL1        0.0014
     23 C          64.1041   83.3506   11.9097 C.3     1  UNL1        0.1120
     24 N          62.6245   82.4821   13.8608 N.3     1  UNL1       -0.1459
     25 C          61.8034   81.3915   14.4824 C.3     1  UNL1        0.1175
     26 C          61.6407   80.0790   13.7746 C.3     1  UNL1        0.1086
     27 N          62.2991   79.8570   12.4453 N.am    1  UNL1       -0.3018
     28 C          63.1203   80.9476   11.8237 C.2     1  UNL1        0.2392
     29 O          63.7787   80.7256   10.4943 O.2     1  UNL1       -0.2736
     30 C          63.2830   82.2601   12.5314 C.3     1  UNL1        0.1645
     31 H          62.1924   78.9956   11.9808 H       1  UNL1        0.1495
     32 S          62.7872   83.7946   14.5685 S.O2    1  UNL1        0.0637
     33 O          64.0885   83.3220   15.1457 O.2     1  UNL1       -0.1528
     34 O          61.4859   84.2671   13.9912 O.2     1  UNL1       -0.1528
     35 C          63.4381   89.0446   17.3992 C.3     1  UNL1        0.0310
     36 C          63.2754   87.7321   16.6915 C.ar    1  UNL1       -0.0218
     37 C          62.3745   86.6781   17.2638 C.ar    1  UNL1       -0.0029
     38 C          62.2118   85.3655   16.5561 C.ar    1  UNL1        0.0196
     39 C          62.9499   85.1070   15.2761 C.ar    1  UNL1        0.1222
     40 C          63.8508   86.1611   14.7039 C.ar    1  UNL1        0.0196
     41 C          64.0135   87.4736   15.4115 C.ar    1  UNL1       -0.0029
@<TRIPOS>BOND
     1    35    36    1
     2    36    37   ar
     3    37    38   ar
     4    38    39   ar
     5    39    32    1
     6    32    33    2
     7    32    34    2
     8    32    24    1
     9    24    25    1
    10    25    26    1
    11    26    27    1
    12    27    28   am
    13    28    29    2
    14    28    30    1
    15    30    23    1
    16    23     1    1
    17     1     2    2
    18     1     3   am
    19     5     3    1
    20     5     6    1
    21     6     7    1
    22     7     8    1
    23     8     9    1
    24     9    10   ar
    25    10    11   ar
    26    11    15    1
    27    15    16    1
    28    16    18    1
    29    18    19    1
    30    19    20    1
    31    19    21    1
    32    19    22    1
    33    11    12   ar
    34    12    13   ar
    35    13    14   ar
    36    39    40   ar
    37    40    41   ar
    38    41    36   ar
    39    30    24    1
    40    14     5    1
    41    14     9   ar
    42    27    31    1
    43     3     4    1
    44    16    17    1
@<TRIPOS>MOLECULE
*****
 41 44 0 0 0
SMALL
GASTEIGER

@<TRIPOS>ATOM
      1 C          63.5017   87.0103   13.4688 C.2     1  UNL1        0.2246
      2 O          64.6048   86.7766   14.4580 O.2     1  UNL1       -0.2750
      3 N          63.2208   88.3976   12.9724 N.am    1  UNL1       -0.3022
      4 H          62.4968   88.5510   12.3231 H       1  UNL1        0.1497
      5 C          64.0431   89.5513   13.4653 C.3     1  UNL1        0.0938
      6 C          64.6053   89.5318   14.8558 C.3     1  UNL1        0.0245
      7 C          65.4275   90.6854   15.3486 C.3     1  UNL1        0.0067
      8 C          65.6877   91.8586   14.4508 C.3     1  UNL1        0.0261
      9 C          65.1255   91.8782   13.0603 C.ar    1  UNL1       -0.0249
     10 C          65.3857   93.0514   12.1626 C.ar    1  UNL1       -0.0075
     11 C          64.8236   93.0709   10.7721 C.ar    1  UNL1       -0.0067
     12 C          64.0012   91.9172   10.2792 C.ar    1  UNL1       -0.0032
     13 C          63.7411   90.7440   11.1769 C.ar    1  UNL1       -0.0033
     14 C          64.3033   90.7245   12.5675 C.ar    1  UNL1       -0.0085
     15 C          65.0837   94.2442    9.8744 C.3     1  UNL1        0.0956
     16 N          66.4691   94.8075    9.7588 N.3     1  UNL1       -0.2937
     17 H          66.4788   95.6768   10.2922 H       1  UNL1        0.1236
     18 C          67.6471   94.0023   10.2214 C.3     1  UNL1        0.0687
     19 C          68.2817   93.0038    9.2994 C.3     1  UNL1        0.0145
     20 C          68.3880   92.0258   10.4317 C.3     1  UNL1        0.0014
     21 C          68.1754   93.9819    8.1671 C.3     1  UNL1        0.0014
     22 C          68.9164   92.0053    8.3773 C.3     1  UNL1        0.0014
     23 C          62.6794   85.8566   12.9759 C.3     1  UNL1        0.1120
     24 N          63.1342   84.5980   10.7490 N.3     1  UNL1       -0.1459
     25 C          63.7899   83.4744   10.0024 C.3     1  UNL1        0.1175
     26 C          64.6468   82.4857   10.7362 C.3     1  UNL1        0.1086
     27 N          64.8478   82.6207   12.2165 N.am    1  UNL1       -0.3018
     28 C          64.1920   83.7443   12.9631 C.2     1  UNL1        0.2392
     29 O          64.3930   83.8792   14.4434 O.2     1  UNL1       -0.2736
     30 C          63.3352   84.7330   12.2294 C.3     1  UNL1        0.1645
     31 H          65.4101   81.9718   12.6980 H       1  UNL1        0.1495
     32 S          62.2774   85.5867   10.0153 S.O2    1  UNL1        0.0637
     33 O          63.2346   85.5595    8.8608 O.2     1  UNL1       -0.1528
     34 O          61.3201   85.6139   11.1697 O.2     1  UNL1       -0.1528
     35 C          58.8501   89.5415    7.0804 C.3     1  UNL1        0.0310
     36 C          59.7069   88.5528    7.8141 C.ar    1  UNL1       -0.0218
     37 C          59.6631   87.1005    7.4415 C.ar    1  UNL1       -0.0029
     38 C          60.5199   86.1118    8.1752 C.ar    1  UNL1        0.0196
     39 C          61.4206   86.5754    9.2816 C.ar    1  UNL1        0.1222
     40 C          61.4644   88.0278    9.6542 C.ar    1  UNL1        0.0196
     41 C          60.6076   89.0164    8.9204 C.ar    1  UNL1       -0.0029
@<TRIPOS>BOND
     1    35    36    1
     2    36    37   ar
     3    37    38   ar
     4    38    39   ar
     5    39    32    1
     6    32    33    2
     7    32    34    2
     8    32    24    1
     9    24    25    1
    10    25    26    1
    11    26    27    1
    12    27    28   am
    13    28    29    2
    14    28    30    1
    15    30    23    1
    16    23     1    1
    17     1     2    2
    18     1     3   am
    19     5     3    1
    20     5     6    1
    21     6     7    1
    22     7     8    1
    23     8     9    1
    24     9    10   ar
    25    10    11   ar
    26    11    15    1
    27    15    16    1
    28    16    18    1
    29    18    19    1
    30    19    20    1
    31    19    21    1
    32    19    22    1
    33    11    12   ar
    34    12    13   ar
    35    13    14   ar
    36    39    40   ar
    37    40    41   ar
    38    41    36   ar
    39    30    24    1
    40    14     5    1
    41    14     9   ar
    42    27    31    1
    43     3     4    1
    44    16    17    1
@<TRIPOS>MOLECULE
*****
 41 44 0 0 0
SMALL
GASTEIGER

@<TRIPOS>ATOM
      1 C          63.3790   87.8094   13.5403 C.2     1  UNL1        0.2246
      2 O          64.6698   87.4767   14.2284 O.2     1  UNL1       -0.2750
      3 N          62.9677   89.2417   13.3696 N.am    1  UNL1       -0.3022
      4 H          62.1205   89.4601   12.9180 H       1  UNL1        0.1497
      5 C          63.8471   90.3414   13.8868 C.3     1  UNL1        0.0938
      6 C          64.0657   90.4953   15.3628 C.3     1  UNL1        0.0245
      7 C          64.9451   91.5949   15.8800 C.3     1  UNL1        0.0067
      8 C          65.6058   92.5406   14.9212 C.3     1  UNL1        0.0261
      9 C          65.3871   92.3867   13.4453 C.ar    1  UNL1       -0.0249
     10 C          66.0478   93.3324   12.4866 C.ar    1  UNL1       -0.0075
     11 C          65.8291   93.1784   11.0106 C.ar    1  UNL1       -0.0067
     12 C          64.9497   92.0788   10.4933 C.ar    1  UNL1       -0.0032
     13 C          64.2890   91.1331   11.4521 C.ar    1  UNL1       -0.0033
     14 C          64.5077   91.2871   12.9281 C.ar    1  UNL1       -0.0085
     15 C          66.4898   94.1241   10.0519 C.3     1  UNL1        0.0956
     16 N          67.1326   95.3803   10.5605 N.3     1  UNL1       -0.2937
     17 H          68.1348   95.2857   10.3960 H       1  UNL1        0.1236
     18 C          66.7256   96.7109   10.0003 C.3     1  UNL1        0.0687
     19 C          65.9803   96.7812    8.7005 C.3     1  UNL1        0.0145
     20 C          64.6802   96.8154    9.4478 C.3     1  UNL1        0.0014
     21 C          67.2804   96.7470    7.9532 C.3     1  UNL1        0.0014
     22 C          65.2350   96.8515    7.4006 C.3     1  UNL1        0.0014
     23 C          62.4997   86.7098   13.0231 C.3     1  UNL1        0.1120
     24 N          62.8865   85.0867   11.0315 N.3     1  UNL1       -0.1459
     25 C          63.4989   83.8354   10.4756 C.3     1  UNL1        0.1175
     26 C          64.3370   82.9558   11.3553 C.3     1  UNL1        0.1086
     27 N          64.5627   83.3275   12.7909 N.am    1  UNL1       -0.3018
     28 C          63.9502   84.5788   13.3468 C.2     1  UNL1        0.2392
     29 O          64.1759   84.9505   14.7825 O.2     1  UNL1       -0.2736
     30 C          63.1121   85.4584   12.4672 C.3     1  UNL1        0.1645
     31 H          65.1128   82.7501   13.3682 H       1  UNL1        0.1495
     32 S          62.0484   85.9664   10.1519 S.O2    1  UNL1        0.0637
     33 O          62.9948   85.7290    9.0127 O.2     1  UNL1       -0.1528
     34 O          61.1019   86.2038   11.2911 O.2     1  UNL1       -0.1528
     35 C          58.6959   89.4849    6.6333 C.3     1  UNL1        0.0310
     36 C          59.5340   88.6053    7.5130 C.ar    1  UNL1       -0.0218
     37 C          60.3770   89.2119    8.5952 C.ar    1  UNL1       -0.0029
     38 C          61.2152   88.3323    9.4749 C.ar    1  UNL1        0.0196
     39 C          61.2103   86.8460    9.2723 C.ar    1  UNL1        0.1222
     40 C          60.3672   86.2394    8.1900 C.ar    1  UNL1        0.0196
     41 C          59.5291   87.1191    7.3103 C.ar    1  UNL1       -0.0029
@<TRIPOS>BOND
     1    35    36    1
     2    36    37   ar
     3    37    38   ar
     4    38    39   ar
     5    39    32    1
     6    32    33    2
     7    32    34    2
     8    32    24    1
     9    24    25    1
    10    25    26    1
    11    26    27    1
    12    27    28   am
    13    28    29    2
    14    28    30    1
    15    30    23    1
    16    23     1    1
    17     1     2    2
    18     1     3   am
    19     5     3    1
    20     5     6    1
    21     6     7    1
    22     7     8    1
    23     8     9    1
    24     9    10   ar
    25    10    11   ar
    26    11    15    1
    27    15    16    1
    28    16    18    1
    29    18    19    1
    30    19    20    1
    31    19    21    1
    32    19    22    1
    33    11    12   ar
    34    12    13   ar
    35    13    14   ar
    36    39    40   ar
    37    40    41   ar
    38    41    36   ar
    39    30    24    1
    40    14     5    1
    41    14     9   ar
    42    27    31    1
    43     3     4    1
    44    16    17    1
@<TRIPOS>MOLECULE
*****
 41 44 0 0 0
SMALL
GASTEIGER

@<TRIPOS>ATOM
      1 C          72.4473   74.2046   12.7586 C.2     1  UNL1        0.2246
      2 O          71.0365   74.7085   12.6813 O.2     1  UNL1       -0.2750
      3 N          73.5419   75.1103   13.2397 N.am    1  UNL1       -0.3022
      4 H          74.4678   74.7796   13.2904 H       1  UNL1        0.1497
      5 C          73.2258   76.5200   13.6435 C.3     1  UNL1        0.0938
      6 C          72.8802   76.8321   15.0694 C.3     1  UNL1        0.0245
      7 C          72.5641   78.2417   15.4732 C.3     1  UNL1        0.0067
      8 C          72.5936   79.3392   14.4511 C.3     1  UNL1        0.0261
      9 C          72.9392   79.0271   13.0252 C.ar    1  UNL1       -0.0249
     10 C          72.9687   80.1246   12.0032 C.ar    1  UNL1       -0.0075
     11 C          73.3143   79.8125   10.5773 C.ar    1  UNL1       -0.0067
     12 C          73.6305   78.4028   10.1735 C.ar    1  UNL1       -0.0032
     13 C          73.6010   77.3053   11.1955 C.ar    1  UNL1       -0.0033
     14 C          73.2553   77.6175   12.6215 C.ar    1  UNL1       -0.0085
     15 C          73.3438   80.9100    9.5553 C.3     1  UNL1        0.0956
     16 N          72.0905   81.2857    8.8218 N.3     1  UNL1       -0.2937
     17 H          72.2563   82.2021    8.4058 H       1  UNL1        0.1236
     18 C          71.5680   80.4019    7.7282 C.3     1  UNL1        0.0687
     19 C          71.8022   80.7671    6.2924 C.3     1  UNL1        0.0145
     20 C          71.8514   82.2181    6.6695 C.3     1  UNL1        0.0014
     21 C          71.7530   79.3162    5.9153 C.3     1  UNL1        0.0014
     22 C          72.0364   81.1323    4.8564 C.3     1  UNL1        0.0014
     23 C          72.7634   72.7950   12.3547 C.3     1  UNL1        0.1120
     24 N          70.8124   71.2636   13.1284 N.3     1  UNL1       -0.1459
     25 C          69.7015   70.3100   12.8018 C.3     1  UNL1        0.1175
     26 C          69.4309   69.9341   11.3750 C.3     1  UNL1        0.1086
     27 N          70.2711   70.5119   10.2749 N.am    1  UNL1       -0.3018
     28 C          71.3819   71.4655   10.6015 C.2     1  UNL1        0.2392
     29 O          72.2221   72.0433    9.5013 O.2     1  UNL1       -0.2736
     30 C          71.6526   71.8414   12.0282 C.3     1  UNL1        0.1645
     31 H          70.0934   70.2652    9.3385 H       1  UNL1        0.1495
     32 S          71.0830   71.6395   14.5550 S.O2    1  UNL1        0.0637
     33 O          69.9077   72.5712   14.5325 O.2     1  UNL1       -0.1528
     34 O          72.2583   70.7078   14.5775 O.2     1  UNL1       -0.1528
     35 C          72.1657   73.1430   20.2617 C.3     1  UNL1        0.0310
     36 C          71.8951   72.7671   18.8351 C.ar    1  UNL1       -0.0218
     37 C          70.9344   71.6588   18.5208 C.ar    1  UNL1       -0.0029
     38 C          70.6637   71.2829   17.0941 C.ar    1  UNL1        0.0196
     39 C          71.3537   72.0153   15.9817 C.ar    1  UNL1        0.1222
     40 C          72.3144   73.1237   16.2960 C.ar    1  UNL1        0.0196
     41 C          72.5851   73.4996   17.7227 C.ar    1  UNL1       -0.0029
@<TRIPOS>BOND
     1    35    36    1
     2    36    37   ar
     3    37    38   ar
     4    38    39   ar
     5    39    32    1
     6    32    33    2
     7    32    34    2
     8    32    24    1
     9    24    25    1
    10    25    26    1
    11    26    27    1
    12    27    28   am
    13    28    29    2
    14    28    30    1
    15    30    23    1
    16    23     1    1
    17     1     2    2
    18     1     3   am
    19     5     3    1
    20     5     6    1
    21     6     7    1
    22     7     8    1
    23     8     9    1
    24     9    10   ar
    25    10    11   ar
    26    11    15    1
    27    15    16    1
    28    16    18    1
    29    18    19    1
    30    19    20    1
    31    19    21    1
    32    19    22    1
    33    11    12   ar
    34    12    13   ar
    35    13    14   ar
    36    39    40   ar
    37    40    41   ar
    38    41    36   ar
    39    30    24    1
    40    14     5    1
    41    14     9   ar
    42    27    31    1
    43     3     4    1
    44    16    17    1
@<TRIPOS>MOLECULE
*****
 41 44 0 0 0
SMALL
GASTEIGER

@<TRIPOS>ATOM
      1 C          62.3948   85.2200   10.1471 C.2     1  UNL1        0.2246
      2 O          61.2887   85.3412   11.1530 O.2     1  UNL1       -0.2750
      3 N          63.4116   84.1250   10.2786 N.am    1  UNL1       -0.3022
      4 H          64.1375   84.0454    9.6184 H       1  UNL1        0.1497
      5 C          63.3221   83.1512   11.4162 C.3     1  UNL1        0.0938
      6 C          63.1097   81.6924   11.1396 C.3     1  UNL1        0.0245
      7 C          63.0203   80.7187   12.2771 C.3     1  UNL1        0.0067
      8 C          63.1434   81.2039   13.6911 C.3     1  UNL1        0.0261
      9 C          63.3558   82.6628   13.9677 C.ar    1  UNL1       -0.0249
     10 C          63.4789   83.1480   15.3817 C.ar    1  UNL1       -0.0075
     11 C          63.6914   84.6068   15.6582 C.ar    1  UNL1       -0.0067
     12 C          63.7808   85.5806   14.5207 C.ar    1  UNL1       -0.0032
     13 C          63.6577   85.0954   13.1067 C.ar    1  UNL1       -0.0033
     14 C          63.4452   83.6364   12.8302 C.ar    1  UNL1       -0.0085
     15 C          63.8145   85.0920   17.0722 C.3     1  UNL1        0.0956
     16 N          62.7621   85.9905   17.6511 N.3     1  UNL1       -0.2937
     17 H          62.5959   85.6722   18.6058 H       1  UNL1        0.1236
     18 C          62.9960   87.4704   17.7226 C.3     1  UNL1        0.0687
     19 C          62.2861   88.3887   16.7725 C.3     1  UNL1        0.0145
     20 C          61.2129   87.3588   16.5790 C.3     1  UNL1        0.0014
     21 C          63.3593   89.4186   16.9659 C.3     1  UNL1        0.0014
     22 C          61.5762   89.3070   15.8223 C.3     1  UNL1        0.0014
     23 C          62.4842   86.1937    9.0096 C.3     1  UNL1        0.1120
     24 N          60.9282   88.2673    9.1812 N.3     1  UNL1       -0.1459
     25 C          59.7063   89.0148    8.7361 C.3     1  UNL1        0.1175
     26 C          58.8185   88.4364    7.6743 C.3     1  UNL1        0.1086
     27 N          59.1526   87.1104    7.0578 N.am    1  UNL1       -0.3018
     28 C          60.3745   86.3629    7.5029 C.2     1  UNL1        0.2392
     29 O          60.7085   85.0368    6.8862 O.2     1  UNL1       -0.2736
     30 C          61.2623   86.9412    8.5645 C.3     1  UNL1        0.1645
     31 H          58.5699   86.7308    6.3609 H       1  UNL1        0.1495
     32 S          61.8161   88.8456   10.2429 S.O2    1  UNL1        0.0637
     33 O          62.6748   89.4711    9.1840 O.2     1  UNL1       -0.1528
     34 O          60.9573   88.2202   11.3017 O.2     1  UNL1       -0.1528
     35 C          65.3674   91.1592   14.4896 C.3     1  UNL1        0.0310
     36 C          64.4796   90.5808   13.4280 C.ar    1  UNL1       -0.0218
     37 C          64.0097   91.4411   12.2926 C.ar    1  UNL1       -0.0029
     38 C          63.1218   90.8627   11.2309 C.ar    1  UNL1        0.0196
     39 C          62.7039   89.4240   11.3045 C.ar    1  UNL1        0.1222
     40 C          63.1738   88.5637   12.4399 C.ar    1  UNL1        0.0196
     41 C          64.0616   89.1421   13.5016 C.ar    1  UNL1       -0.0029
@<TRIPOS>BOND
     1    35    36    1
     2    36    37   ar
     3    37    38   ar
     4    38    39   ar
     5    39    32    1
     6    32    33    2
     7    32    34    2
     8    32    24    1
     9    24    25    1
    10    25    26    1
    11    26    27    1
    12    27    28   am
    13    28    29    2
    14    28    30    1
    15    30    23    1
    16    23     1    1
    17     1     2    2
    18     1     3   am
    19     5     3    1
    20     5     6    1
    21     6     7    1
    22     7     8    1
    23     8     9    1
    24     9    10   ar
    25    10    11   ar
    26    11    15    1
    27    15    16    1
    28    16    18    1
    29    18    19    1
    30    19    20    1
    31    19    21    1
    32    19    22    1
    33    11    12   ar
    34    12    13   ar
    35    13    14   ar
    36    39    40   ar
    37    40    41   ar
    38    41    36   ar
    39    30    24    1
    40    14     5    1
    41    14     9   ar
    42    27    31    1
    43     3     4    1
    44    16    17    1
