@<TRIPOS>MOLECULE
*****
 30 34 0 0 0
SMALL
GASTEIGER

@<TRIPOS>ATOM
      1 C          63.6106   91.0350   12.9315 C.ar    1  UNL1        0.0599
      2 C          62.7849   90.5975   11.7582 C.ar    1  UNL1        0.0955
      3 N          63.3457   91.2479   10.5285 N.ar    1  UNL1       -0.2292
      4 C          64.5181   92.0874   10.9417 C.ar    1  UNL1        0.1481
      5 C          65.4577   92.9547   10.1575 C.ar    1  UNL1        0.0488
      6 C          66.5610   93.6903   10.8585 C.ar    1  UNL1        0.0622
      7 CL         67.5007   94.5576   10.0744 Cl      1  UNL1       -0.0821
      8 C          66.7247   93.5587   12.3438 C.ar    1  UNL1        0.0305
      9 C          65.7852   92.6914   13.1280 C.ar    1  UNL1        0.0820
     10 N          64.6818   91.9558   12.4269 N.ar    1  UNL1       -0.2927
     11 C          63.4019   90.6238   14.3589 C.3     1  UNL1        0.0707
     12 C          64.0168   89.3555   14.8717 C.3     1  UNL1        0.1572
     13 C          62.9270   88.0528   17.3446 C.3     1  UNL1        0.1761
     14 S          63.4719   88.7041   16.1082 S.O2    1  UNL1       -0.0078
     15 O          63.8889   87.3617   15.5848 O.2     1  UNL1       -0.1729
     16 O          63.0549   90.0466   16.6316 O.2     1  UNL1       -0.1729
     17 C          61.6054   89.6720   11.8062 C.3     1  UNL1        0.1575
     18 N          61.6545   88.3565   11.0873 N.ar    1  UNL1       -0.2726
     19 C          62.4645   87.1604   11.4916 C.ar    1  UNL1        0.3318
     20 O          63.3675   87.0700   12.6859 O.2     1  UNL1       -0.2463
     21 N          62.2129   86.0707   10.4920 N.ar    1  UNL1       -0.2817
     22 C          61.2474   86.5932    9.4698 C.ar    1  UNL1        0.0827
     23 C          60.6379   85.9653    8.2516 C.ar    1  UNL1        0.0395
     24 C          59.6833   86.7500    7.4012 C.ar    1  UNL1        0.1005
     25 N          59.3382   88.1626    7.7691 N.ar    1  UNL1       -0.2407
     26 C          59.9477   88.7906    8.9874 C.ar    1  UNL1        0.1176
     27 C          60.9023   88.0060    9.8377 C.ar    1  UNL1        0.0992
     28 C          62.8201   84.6993   10.5112 C.3     1  UNL1        0.0900
     29 C          63.6869   83.6533    9.8749 C.3     1  UNL1        0.0246
     30 C          63.0051   83.3697   11.1806 C.3     1  UNL1        0.0246
@<TRIPOS>BOND
     1    13    14    1
     2    14    15    2
     3    14    16    2
     4    14    12    1
     5    12    11    1
     6    11     1    1
     7     1     2   ar
     8     2    17    1
     9    17    18    1
    10    18    19   ar
    11    19    20    2
    12    19    21   ar
    13    21    28    1
    14    28    29    1
    15    29    30    1
    16    21    22   ar
    17    22    23   ar
    18    23    24   ar
    19    24    25   ar
    20    25    26   ar
    21    26    27   ar
    22     2     3   ar
    23     3     4   ar
    24     4     5   ar
    25     5     6   ar
    26     6     7    1
    27     6     8   ar
    28     8     9   ar
    29     9    10   ar
    30    10     1   ar
    31    27    18   ar
    32    10     4   ar
    33    30    28    1
    34    27    22   ar
@<TRIPOS>MOLECULE
*****
 30 34 0 0 0
SMALL
GASTEIGER

@<TRIPOS>ATOM
      1 C          62.8542   88.0334   12.0451 C.ar    1  UNL1        0.0599
      2 C          63.2968   89.0755   13.0291 C.ar    1  UNL1        0.0955
      3 N          63.9442   88.3747   14.1866 N.ar    1  UNL1       -0.2292
      4 C          63.9018   86.8995   13.9180 C.ar    1  UNL1        0.1481
      5 C          64.3895   85.7211   14.7075 C.ar    1  UNL1        0.0488
      6 C          64.2036   84.3318   14.1735 C.ar    1  UNL1        0.0622
      7 CL         64.6914   83.1533   14.9631 Cl      1  UNL1       -0.0821
      8 C          63.5300   84.1209   12.8500 C.ar    1  UNL1        0.0305
      9 C          63.0422   85.2993   12.0605 C.ar    1  UNL1        0.0820
     10 N          63.2281   86.6886   12.5944 N.ar    1  UNL1       -0.2927
     11 C          62.1597   88.2909   10.7408 C.3     1  UNL1        0.0707
     12 C          60.6611   88.2999   10.6780 C.3     1  UNL1        0.1572
     13 C          59.1345   90.7036   11.6223 C.3     1  UNL1        0.1761
     14 S          59.8978   89.5017   11.1501 S.O2    1  UNL1       -0.0078
     15 O          60.3559   90.2666    9.9438 O.2     1  UNL1       -0.1729
     16 O          59.4397   88.7369   12.3564 O.2     1  UNL1       -0.1729
     17 C          63.1225   90.5580   12.8816 C.3     1  UNL1        0.1575
     18 N          64.3178   91.4344   12.6517 N.ar    1  UNL1       -0.2726
     19 C          64.7649   91.9873   11.3308 C.ar    1  UNL1        0.3318
     20 O          64.0949   91.7606   10.0080 O.2     1  UNL1       -0.2463
     21 N          65.9994   92.8065   11.5650 N.ar    1  UNL1       -0.2817
     22 C          66.3154   92.7601   13.0306 C.ar    1  UNL1        0.0827
     23 C          67.4151   93.3803   13.8404 C.ar    1  UNL1        0.0395
     24 C          67.4757   93.1526   15.3218 C.ar    1  UNL1        0.1005
     25 N          66.4365   92.3046   15.9934 N.ar    1  UNL1       -0.2407
     26 C          65.3367   91.6843   15.1836 C.ar    1  UNL1        0.1176
     27 C          65.2761   91.9120   13.7022 C.ar    1  UNL1        0.0992
     28 C          66.7806   93.5429   10.5176 C.3     1  UNL1        0.0900
     29 C          67.1759   94.8306    9.8573 C.3     1  UNL1        0.0246
     30 C          67.7387   93.5308    9.3634 C.3     1  UNL1        0.0246
@<TRIPOS>BOND
     1    13    14    1
     2    14    15    2
     3    14    16    2
     4    14    12    1
     5    12    11    1
     6    11     1    1
     7     1     2   ar
     8     2    17    1
     9    17    18    1
    10    18    19   ar
    11    19    20    2
    12    19    21   ar
    13    21    28    1
    14    28    29    1
    15    29    30    1
    16    21    22   ar
    17    22    23   ar
    18    23    24   ar
    19    24    25   ar
    20    25    26   ar
    21    26    27   ar
    22     2     3   ar
    23     3     4   ar
    24     4     5   ar
    25     5     6   ar
    26     6     7    1
    27     6     8   ar
    28     8     9   ar
    29     9    10   ar
    30    10     1   ar
    31    27    18   ar
    32    10     4   ar
    33    30    28    1
    34    27    22   ar
@<TRIPOS>MOLECULE
*****
 30 34 0 0 0
SMALL
GASTEIGER

@<TRIPOS>ATOM
      1 C          62.8232   88.0898   11.9365 C.ar    1  UNL1        0.0599
      2 C          63.2496   89.1172   12.9427 C.ar    1  UNL1        0.0955
      3 N          63.8684   88.3987   14.1050 N.ar    1  UNL1       -0.2292
      4 C          63.8244   86.9272   13.8171 C.ar    1  UNL1        0.1481
      5 C          64.2891   85.7366   14.6021 C.ar    1  UNL1        0.0488
      6 C          64.1078   84.3550   14.0469 C.ar    1  UNL1        0.0622
      7 CL         64.5725   83.1642   14.8319 Cl      1  UNL1       -0.0821
      8 C          63.4619   84.1640   12.7066 C.ar    1  UNL1        0.0305
      9 C          62.9972   85.3547   11.9216 C.ar    1  UNL1        0.0820
     10 N          63.1785   86.7363   12.4768 N.ar    1  UNL1       -0.2927
     11 C          62.1583   88.3671   10.6208 C.3     1  UNL1        0.0707
     12 C          60.6989   88.0714   10.4409 C.3     1  UNL1        0.1572
     13 C          59.6851   87.0721    7.8001 C.3     1  UNL1        0.1761
     14 S          60.1920   87.5717    9.1205 S.O2    1  UNL1       -0.0078
     15 O          60.5761   86.1729    9.5024 O.2     1  UNL1       -0.1729
     16 O          59.8079   88.9705    8.7386 O.2     1  UNL1       -0.1729
     17 C          63.0860   90.6023   12.8100 C.3     1  UNL1        0.1575
     18 N          64.2888   91.4736   12.6005 N.ar    1  UNL1       -0.2726
     19 C          64.7546   92.0330   11.2889 C.ar    1  UNL1        0.3318
     20 O          64.0993   91.8192    9.9567 O.2     1  UNL1       -0.2463
     21 N          65.9908   92.8437   11.5435 N.ar    1  UNL1       -0.2817
     22 C          66.2890   92.7854   13.0124 C.ar    1  UNL1        0.0827
     23 C          67.3823   93.3938   13.8395 C.ar    1  UNL1        0.0395
     24 C          67.4240   93.1556   15.3200 C.ar    1  UNL1        0.1005
     25 N          66.3721   92.3089   15.9732 N.ar    1  UNL1       -0.2407
     26 C          65.2787   91.7004   15.1460 C.ar    1  UNL1        0.1176
     27 C          65.2371   91.9386   13.6657 C.ar    1  UNL1        0.0992
     28 C          66.7886   93.5829   10.5106 C.3     1  UNL1        0.0900
     29 C          67.7477   93.5722    9.3572 C.3     1  UNL1        0.0246
     30 C          67.2114   94.8740    9.8746 C.3     1  UNL1        0.0246
@<TRIPOS>BOND
     1    13    14    1
     2    14    15    2
     3    14    16    2
     4    14    12    1
     5    12    11    1
     6    11     1    1
     7     1     2   ar
     8     2    17    1
     9    17    18    1
    10    18    19   ar
    11    19    20    2
    12    19    21   ar
    13    21    28    1
    14    28    29    1
    15    29    30    1
    16    21    22   ar
    17    22    23   ar
    18    23    24   ar
    19    24    25   ar
    20    25    26   ar
    21    26    27   ar
    22     2     3   ar
    23     3     4   ar
    24     4     5   ar
    25     5     6   ar
    26     6     7    1
    27     6     8   ar
    28     8     9   ar
    29     9    10   ar
    30    10     1   ar
    31    27    18   ar
    32    10     4   ar
    33    30    28    1
    34    27    22   ar
@<TRIPOS>MOLECULE
*****
 30 34 0 0 0
SMALL
GASTEIGER

@<TRIPOS>ATOM
      1 C          62.9055   88.7524   12.3138 C.ar    1  UNL1        0.0599
      2 C          62.6683   90.2271   12.1754 C.ar    1  UNL1        0.0955
      3 N          61.6603   90.4339   11.0840 N.ar    1  UNL1       -0.2292
      4 C          61.2744   89.0872   10.5480 C.ar    1  UNL1        0.1481
      5 C          60.3217   88.6729    9.4660 C.ar    1  UNL1        0.0488
      6 C          60.1387   87.2194    9.1441 C.ar    1  UNL1        0.0622
      7 CL         59.1859   86.8050    8.0621 Cl      1  UNL1       -0.0821
      8 C          60.9083   86.1801    9.9041 C.ar    1  UNL1        0.0305
      9 C          61.8609   86.5944   10.9861 C.ar    1  UNL1        0.0820
     10 N          62.0440   88.0479   11.3080 N.ar    1  UNL1       -0.2927
     11 C          63.8401   88.0973   13.2871 C.3     1  UNL1        0.0707
     12 C          64.1769   88.7803   14.5793 C.3     1  UNL1        0.1572
     13 C          62.8684   87.8950   17.1296 C.3     1  UNL1        0.1761
     14 S          63.5226   88.3376   15.8545 S.O2    1  UNL1       -0.0078
     15 O          63.1666   89.7611   16.1660 O.2     1  UNL1       -0.1729
     16 O          63.8787   86.9142   15.5430 O.2     1  UNL1       -0.1729
     17 C          63.3241   91.3055   12.9859 C.3     1  UNL1        0.1575
     18 N          64.7133   91.7586   12.6472 N.ar    1  UNL1       -0.2726
     19 C          65.2183   92.1055   11.2779 C.ar    1  UNL1        0.3318
     20 O          64.4226   92.0601   10.0072 O.2     1  UNL1       -0.2463
     21 N          66.6585   92.5057   11.4026 N.ar    1  UNL1       -0.2817
     22 C          67.0437   92.4061   12.8490 C.ar    1  UNL1        0.0827
     23 C          68.3338   92.6762   13.5649 C.ar    1  UNL1        0.0395
     24 C          68.4217   92.4846   15.0501 C.ar    1  UNL1        0.1005
     25 N          67.2195   92.0229   15.8192 N.ar    1  UNL1       -0.2407
     26 C          65.9294   91.7528   15.1032 C.ar    1  UNL1        0.1176
     27 C          65.8414   91.9444   13.6181 C.ar    1  UNL1        0.0992
     28 C          67.5559   92.9307   10.2785 C.3     1  UNL1        0.0900
     29 C          67.9925   93.9668    9.2854 C.3     1  UNL1        0.0246
     30 C          68.6739   92.6310    9.3243 C.3     1  UNL1        0.0246
@<TRIPOS>BOND
     1    13    14    1
     2    14    15    2
     3    14    16    2
     4    14    12    1
     5    12    11    1
     6    11     1    1
     7     1     2   ar
     8     2    17    1
     9    17    18    1
    10    18    19   ar
    11    19    20    2
    12    19    21   ar
    13    21    28    1
    14    28    29    1
    15    29    30    1
    16    21    22   ar
    17    22    23   ar
    18    23    24   ar
    19    24    25   ar
    20    25    26   ar
    21    26    27   ar
    22     2     3   ar
    23     3     4   ar
    24     4     5   ar
    25     5     6   ar
    26     6     7    1
    27     6     8   ar
    28     8     9   ar
    29     9    10   ar
    30    10     1   ar
    31    27    18   ar
    32    10     4   ar
    33    30    28    1
    34    27    22   ar
@<TRIPOS>MOLECULE
*****
 30 34 0 0 0
SMALL
GASTEIGER

@<TRIPOS>ATOM
      1 C          62.4744   87.6295   11.2643 C.ar    1  UNL1        0.0599
      2 C          62.9550   88.5113   12.3785 C.ar    1  UNL1        0.0955
      3 N          63.5730   87.6362   13.4284 N.ar    1  UNL1       -0.2292
      4 C          63.4744   86.2136   12.9630 C.ar    1  UNL1        0.1481
      5 C          63.9152   84.9215   13.5844 C.ar    1  UNL1        0.0488
      6 C          63.6770   83.6253   12.8683 C.ar    1  UNL1        0.0622
      7 CL         64.1178   82.3331   13.4896 Cl      1  UNL1       -0.0821
      8 C          62.9980   83.6211   11.5308 C.ar    1  UNL1        0.0305
      9 C          62.5572   84.9132   10.9094 C.ar    1  UNL1        0.0820
     10 N          62.7954   86.2094   11.6255 N.ar    1  UNL1       -0.2927
     11 C          61.7924   88.0873   10.0092 C.3     1  UNL1        0.0707
     12 C          60.4223   87.5786    9.6716 C.3     1  UNL1        0.1572
     13 C          59.0355   88.5369    7.1900 C.3     1  UNL1        0.1761
     14 S          59.7289   88.0578    8.4308 S.O2    1  UNL1       -0.0078
     15 O          59.1625   86.6853    8.2174 O.2     1  UNL1       -0.1729
     16 O          60.2953   89.4302    8.6443 O.2     1  UNL1       -0.1729
     17 C          62.8380   90.0057   12.4332 C.3     1  UNL1        0.1575
     18 N          64.0246   90.8371   12.8213 N.ar    1  UNL1       -0.2726
     19 C          64.7147   90.8213   14.1531 C.ar    1  UNL1        0.3318
     20 O          64.3392   89.9712   15.3305 O.2     1  UNL1       -0.2463
     21 N          65.8460   91.8048   14.1008 N.ar    1  UNL1       -0.2817
     22 C          65.8552   92.4285   12.7366 C.ar    1  UNL1        0.0827
     23 C          66.7432   93.4637   12.1122 C.ar    1  UNL1        0.0395
     24 C          66.5055   93.9009   10.6971 C.ar    1  UNL1        0.1005
     25 N          65.3798   93.3029    9.9065 N.ar    1  UNL1       -0.2407
     26 C          64.4918   92.2676   10.5308 C.ar    1  UNL1        0.1176
     27 C          64.7295   91.8305   11.9458 C.ar    1  UNL1        0.0992
     28 C          66.8005   92.1108   15.2165 C.3     1  UNL1        0.0900
     29 C          67.0908   92.7638   16.5355 C.3     1  UNL1        0.0246
     30 C          68.1637   91.9880   15.8304 C.3     1  UNL1        0.0246
@<TRIPOS>BOND
     1    13    14    1
     2    14    15    2
     3    14    16    2
     4    14    12    1
     5    12    11    1
     6    11     1    1
     7     1     2   ar
     8     2    17    1
     9    17    18    1
    10    18    19   ar
    11    19    20    2
    12    19    21   ar
    13    21    28    1
    14    28    29    1
    15    29    30    1
    16    21    22   ar
    17    22    23   ar
    18    23    24   ar
    19    24    25   ar
    20    25    26   ar
    21    26    27   ar
    22     2     3   ar
    23     3     4   ar
    24     4     5   ar
    25     5     6   ar
    26     6     7    1
    27     6     8   ar
    28     8     9   ar
    29     9    10   ar
    30    10     1   ar
    31    27    18   ar
    32    10     4   ar
    33    30    28    1
    34    27    22   ar
@<TRIPOS>MOLECULE
*****
 30 34 0 0 0
SMALL
GASTEIGER

@<TRIPOS>ATOM
      1 C          64.8527   91.9169   11.8747 C.ar    1  UNL1        0.0599
      2 C          63.6470   91.2003   12.4064 C.ar    1  UNL1        0.0955
      3 N          63.8679   90.9425   13.8675 N.ar    1  UNL1       -0.2292
      4 C          65.2101   91.4998   14.2388 C.ar    1  UNL1        0.1481
      5 C          65.9567   91.5367   15.5392 C.ar    1  UNL1        0.0488
      6 C          67.3120   92.1758   15.6080 C.ar    1  UNL1        0.0622
      7 CL         68.0586   92.2128   16.9085 Cl      1  UNL1       -0.0821
      8 C          67.9206   92.7780   14.3764 C.ar    1  UNL1        0.0305
      9 C          67.1740   92.7411   13.0760 C.ar    1  UNL1        0.0820
     10 N          65.8188   92.1020   13.0071 N.ar    1  UNL1       -0.2927
     11 C          65.0566   92.3690   10.4591 C.3     1  UNL1        0.0707
     12 C          65.3865   93.8033   10.1699 C.3     1  UNL1        0.1572
     13 C          68.0584   94.5241    9.0117 C.3     1  UNL1        0.1761
     14 S          66.7224   94.1637    9.5908 S.O2    1  UNL1       -0.0078
     15 O          67.1600   92.7339    9.7104 O.2     1  UNL1       -0.1729
     16 O          66.2849   95.5935    9.4712 O.2     1  UNL1       -0.1729
     17 C          62.4334   90.8100   11.6158 C.3     1  UNL1        0.1575
     18 N          62.2020   89.3718   11.2581 N.ar    1  UNL1       -0.2726
     19 C          62.8022   88.1836   11.9496 C.ar    1  UNL1        0.3318
     20 O          63.7393   88.2252   13.1201 O.2     1  UNL1       -0.2463
     21 N          62.3009   86.9467   11.2650 N.ar    1  UNL1       -0.2817
     22 C          61.3907   87.3703   10.1504 C.ar    1  UNL1        0.0827
     23 C          60.6098   86.5851    9.1388 C.ar    1  UNL1        0.0395
     24 C          59.7676   87.2985    8.1230 C.ar    1  UNL1        0.1005
     25 N          59.7065   88.7972    8.1188 N.ar    1  UNL1       -0.2407
     26 C          60.4875   89.5826    9.1304 C.ar    1  UNL1        0.1176
     27 C          61.3296   88.8692   10.1462 C.ar    1  UNL1        0.0992
     28 C          62.6486   85.5342   11.6307 C.3     1  UNL1        0.0900
     29 C          63.0013   84.1352   11.2201 C.3     1  UNL1        0.0246
     30 C          62.8982   84.4864   12.6747 C.3     1  UNL1        0.0246
@<TRIPOS>BOND
     1    13    14    1
     2    14    15    2
     3    14    16    2
     4    14    12    1
     5    12    11    1
     6    11     1    1
     7     1     2   ar
     8     2    17    1
     9    17    18    1
    10    18    19   ar
    11    19    20    2
    12    19    21   ar
    13    21    28    1
    14    28    29    1
    15    29    30    1
    16    21    22   ar
    17    22    23   ar
    18    23    24   ar
    19    24    25   ar
    20    25    26   ar
    21    26    27   ar
    22     2     3   ar
    23     3     4   ar
    24     4     5   ar
    25     5     6   ar
    26     6     7    1
    27     6     8   ar
    28     8     9   ar
    29     9    10   ar
    30    10     1   ar
    31    27    18   ar
    32    10     4   ar
    33    30    28    1
    34    27    22   ar
@<TRIPOS>MOLECULE
*****
 30 34 0 0 0
SMALL
GASTEIGER

@<TRIPOS>ATOM
      1 C          62.6151   88.2777   11.9490 C.ar    1  UNL1        0.0599
      2 C          62.4409   89.7326   12.2701 C.ar    1  UNL1        0.0955
      3 N          61.4787   90.3144   11.2774 N.ar    1  UNL1       -0.2292
      4 C          61.0581   89.2191   10.3427 C.ar    1  UNL1        0.1481
      5 C          60.1264   89.2054    9.1673 C.ar    1  UNL1        0.0488
      6 C          59.8970   87.9329    8.4070 C.ar    1  UNL1        0.0622
      7 CL         58.9652   87.9191    7.2315 Cl      1  UNL1       -0.0821
      8 C          60.5993   86.6742    8.8221 C.ar    1  UNL1        0.0305
      9 C          61.5310   86.6879    9.9975 C.ar    1  UNL1        0.0820
     10 N          61.7604   87.9604   10.7578 N.ar    1  UNL1       -0.2927
     11 C          63.4902   87.3101   12.6891 C.3     1  UNL1        0.0707
     12 C          63.1472   85.8500   12.7058 C.3     1  UNL1        0.1572
     13 C          64.2355   84.0779   14.8680 C.3     1  UNL1        0.1761
     14 S          63.6914   84.9639   13.7869 S.O2    1  UNL1       -0.0078
     15 O          63.6146   83.7866   12.8607 O.2     1  UNL1       -0.1729
     16 O          63.7681   86.1413   14.7132 O.2     1  UNL1       -0.1729
     17 C          63.1113   90.4752   13.3878 C.3     1  UNL1        0.1575
     18 N          64.2733   91.3782   13.0973 N.ar    1  UNL1       -0.2726
     19 C          64.6958   91.8633   11.7422 C.ar    1  UNL1        0.3318
     20 O          64.0306   91.5304   10.4397 O.2     1  UNL1       -0.2463
     21 N          65.9004   92.7396   11.9184 N.ar    1  UNL1       -0.2817
     22 C          66.2224   92.7962   13.3824 C.ar    1  UNL1        0.0827
     23 C          67.3013   93.5051   14.1461 C.ar    1  UNL1        0.0395
     24 C          67.3746   93.3727   15.6385 C.ar    1  UNL1        0.1005
     25 N          66.3690   92.5313   16.3670 N.ar    1  UNL1       -0.2407
     26 C          65.2900   91.8224   15.6033 C.ar    1  UNL1        0.1176
     27 C          65.2167   91.9548   14.1110 C.ar    1  UNL1        0.0992
     28 C          66.6512   93.4369   10.8230 C.3     1  UNL1        0.0900
     29 C          67.6384   93.3954    9.6943 C.3     1  UNL1        0.0246
     30 C          66.9644   94.6863   10.0541 C.3     1  UNL1        0.0246
@<TRIPOS>BOND
     1    13    14    1
     2    14    15    2
     3    14    16    2
     4    14    12    1
     5    12    11    1
     6    11     1    1
     7     1     2   ar
     8     2    17    1
     9    17    18    1
    10    18    19   ar
    11    19    20    2
    12    19    21   ar
    13    21    28    1
    14    28    29    1
    15    29    30    1
    16    21    22   ar
    17    22    23   ar
    18    23    24   ar
    19    24    25   ar
    20    25    26   ar
    21    26    27   ar
    22     2     3   ar
    23     3     4   ar
    24     4     5   ar
    25     5     6   ar
    26     6     7    1
    27     6     8   ar
    28     8     9   ar
    29     9    10   ar
    30    10     1   ar
    31    27    18   ar
    32    10     4   ar
    33    30    28    1
    34    27    22   ar
@<TRIPOS>MOLECULE
*****
 30 34 0 0 0
SMALL
GASTEIGER

@<TRIPOS>ATOM
      1 C          62.1936   86.7443   10.5562 C.ar    1  UNL1        0.0599
      2 C          62.3883   87.7330   11.6673 C.ar    1  UNL1        0.0955
      3 N          63.0325   87.0169   12.8172 N.ar    1  UNL1       -0.2292
      4 C          63.2360   85.5857   12.4167 C.ar    1  UNL1        0.1481
      5 C          63.8264   84.4142   13.1439 C.ar    1  UNL1        0.0488
      6 C          63.8983   83.0742   12.4737 C.ar    1  UNL1        0.0622
      7 CL         64.4887   81.9026   13.2010 Cl      1  UNL1       -0.0821
      8 C          63.3798   82.9058   11.0763 C.ar    1  UNL1        0.0305
      9 C          62.7894   84.0773   10.3491 C.ar    1  UNL1        0.0820
     10 N          62.7175   85.4173   11.0193 N.ar    1  UNL1       -0.2927
     11 C          61.5823   87.0322    9.2170 C.3     1  UNL1        0.0707
     12 C          60.1276   87.3833    9.1164 C.3     1  UNL1        0.1572
     13 C          59.1684   89.1889    6.9209 C.3     1  UNL1        0.1761
     14 S          59.6480   88.2861    8.0186 S.O2    1  UNL1       -0.0078
     15 O          58.9520   87.1268    7.3693 O.2     1  UNL1       -0.1729
     16 O          60.3440   89.4454    8.6680 O.2     1  UNL1       -0.1729
     17 C          62.0059   89.1830   11.6344 C.3     1  UNL1        0.1575
     18 N          63.0460   90.2384   11.8675 N.ar    1  UNL1       -0.2726
     19 C          63.6195   91.1559   10.8284 C.ar    1  UNL1        0.3318
     20 O          63.2534   91.1789    9.3740 O.2     1  UNL1       -0.2463
     21 N          64.6231   92.0462   11.4992 N.ar    1  UNL1       -0.2817
     22 C          64.6700   91.6790   12.9529 C.ar    1  UNL1        0.0827
     23 C          65.4743   92.2177   14.0986 C.ar    1  UNL1        0.0395
     24 C          65.3039   91.6391   15.4721 C.ar    1  UNL1        0.1005
     25 N          64.3292   90.5219   15.6997 N.ar    1  UNL1       -0.2407
     26 C          63.5249   89.9832   14.5538 C.ar    1  UNL1        0.1176
     27 C          63.6953   90.5618   13.1804 C.ar    1  UNL1        0.0992
     28 C          65.4370   93.1158   10.8333 C.3     1  UNL1        0.0900
     29 C          65.6758   94.5644   10.5259 C.3     1  UNL1        0.0246
     30 C          66.6079   93.5199    9.9873 C.3     1  UNL1        0.0246
@<TRIPOS>BOND
     1    13    14    1
     2    14    15    2
     3    14    16    2
     4    14    12    1
     5    12    11    1
     6    11     1    1
     7     1     2   ar
     8     2    17    1
     9    17    18    1
    10    18    19   ar
    11    19    20    2
    12    19    21   ar
    13    21    28    1
    14    28    29    1
    15    29    30    1
    16    21    22   ar
    17    22    23   ar
    18    23    24   ar
    19    24    25   ar
    20    25    26   ar
    21    26    27   ar
    22     2     3   ar
    23     3     4   ar
    24     4     5   ar
    25     5     6   ar
    26     6     7    1
    27     6     8   ar
    28     8     9   ar
    29     9    10   ar
    30    10     1   ar
    31    27    18   ar
    32    10     4   ar
    33    30    28    1
    34    27    22   ar
@<TRIPOS>MOLECULE
*****
 30 34 0 0 0
SMALL
GASTEIGER

@<TRIPOS>ATOM
      1 C          63.1877   88.3280   12.7228 C.ar    1  UNL1        0.0599
      2 C          62.6239   89.7175   12.6843 C.ar    1  UNL1        0.0955
      3 N          61.6791   89.8022   11.5223 N.ar    1  UNL1       -0.2292
      4 C          61.6590   88.4651   10.8427 C.ar    1  UNL1        0.1481
      5 C          60.9122   87.9596    9.6441 C.ar    1  UNL1        0.0488
      6 C          61.0977   86.5429    9.1875 C.ar    1  UNL1        0.0622
      7 CL         60.3508   86.0373    7.9889 Cl      1  UNL1       -0.0821
      8 C          62.0301   85.6318    9.9295 C.ar    1  UNL1        0.0305
      9 C          62.7769   86.1373   11.1280 C.ar    1  UNL1        0.0820
     10 N          62.5914   87.5540   11.5847 N.ar    1  UNL1       -0.2927
     11 C          64.1746   87.8044   13.7237 C.3     1  UNL1        0.0707
     12 C          63.7323   86.8284   14.7733 C.3     1  UNL1        0.1572
     13 C          64.4681   83.9301   14.5321 C.3     1  UNL1        0.1761
     14 S          64.1002   85.3792   14.6527 S.O2    1  UNL1       -0.0078
     15 O          62.6535   85.0272   14.4704 O.2     1  UNL1       -0.1729
     16 O          65.5469   85.7313   14.8350 O.2     1  UNL1       -0.1729
     17 C          62.9480   90.8273   13.6399 C.3     1  UNL1        0.1575
     18 N          64.3127   91.4496   13.6316 N.ar    1  UNL1       -0.2726
     19 C          65.1832   91.6819   14.8310 C.ar    1  UNL1        0.3318
     20 O          64.8416   91.3326   16.2492 O.2     1  UNL1       -0.2463
     21 N          66.4551   92.3248   14.3631 N.ar    1  UNL1       -0.2817
     22 C          66.3708   92.4898   12.8746 C.ar    1  UNL1        0.0827
     23 C          67.3286   93.0627   11.8725 C.ar    1  UNL1        0.0395
     24 C          66.9625   93.0947   10.4181 C.ar    1  UNL1        0.1005
     25 N          65.6384   92.5539    9.9661 N.ar    1  UNL1       -0.2407
     26 C          64.6805   91.9809   10.9682 C.ar    1  UNL1        0.1176
     27 C          65.0467   91.9489   12.4225 C.ar    1  UNL1        0.0992
     28 C          67.6087   92.7312   15.2313 C.3     1  UNL1        0.0900
     29 C          68.7848   92.3617   16.0860 C.3     1  UNL1        0.0246
     30 C          68.4310   93.8048   15.8805 C.3     1  UNL1        0.0246
@<TRIPOS>BOND
     1    13    14    1
     2    14    15    2
     3    14    16    2
     4    14    12    1
     5    12    11    1
     6    11     1    1
     7     1     2   ar
     8     2    17    1
     9    17    18    1
    10    18    19   ar
    11    19    20    2
    12    19    21   ar
    13    21    28    1
    14    28    29    1
    15    29    30    1
    16    21    22   ar
    17    22    23   ar
    18    23    24   ar
    19    24    25   ar
    20    25    26   ar
    21    26    27   ar
    22     2     3   ar
    23     3     4   ar
    24     4     5   ar
    25     5     6   ar
    26     6     7    1
    27     6     8   ar
    28     8     9   ar
    29     9    10   ar
    30    10     1   ar
    31    27    18   ar
    32    10     4   ar
    33    30    28    1
    34    27    22   ar
