@<TRIPOS>MOLECULE
*****
 28 30 0 0 0
SMALL
GASTEIGER

@<TRIPOS>ATOM
      1 N          65.5801   91.9185   12.0790 N.am    1  UNL1       -0.2916
      2 C          64.5396   91.2705   12.9435 C.2     1  UNL1        0.2498
      3 O          64.2749   91.7987   14.3222 O.2     1  UNL1       -0.2700
      4 H          65.7538   91.5718   11.1740 H       1  UNL1        0.1502
      5 C          63.7636   90.0943   12.4292 C.ar    1  UNL1        0.0970
      6 C          63.6495   88.7545   13.0940 C.ar    1  UNL1        0.0860
      7 C          64.2913   88.3556   14.3898 C.3     1  UNL1        0.0542
      8 N          62.7809   87.8835   12.2355 N.ar    1  UNL1       -0.1685
      9 N          62.3582   88.6850   11.0402 N.ar    1  UNL1       -0.2192
     10 C          62.9655   90.0514   11.1599 C.ar    1  UNL1        0.1453
     11 CL         62.8032   91.1771   10.1820 Cl      1  UNL1       -0.0611
     12 C          61.4819   88.2046    9.9215 C.ar    1  UNL1        0.0837
     13 C          60.5486   89.1588    9.2371 C.ar    1  UNL1        0.0192
     14 C          59.6724   88.6783    8.1185 C.ar    1  UNL1        0.0015
     15 C          59.7295   87.2437    7.6842 C.ar    1  UNL1        0.0001
     16 C          60.6628   86.2895    8.3686 C.ar    1  UNL1        0.0015
     17 C          61.5390   86.7700    9.4872 C.ar    1  UNL1        0.0192
     18 C          66.3561   93.0947   12.5932 C.3     1  UNL1        0.1945
     19 C          67.4226   92.8947   13.6288 C.2     1  UNL1        0.3371
     20 O          68.5894   91.9972   13.3403 O.2     1  UNL1       -0.2482
     21 C          66.9896   92.8104   16.1892 C.3     1  UNL1        0.2557
     22 O          67.3223   93.5922   14.9530 O.3     1  UNL1       -0.4432
     23 C          66.0655   94.4708   12.0718 C.3     1  UNL1        0.1386
     24 N          66.6400   94.9120   10.7583 N.ar    1  UNL1       -0.3055
     25 C          66.6873   96.3207   10.2454 C.ar    1  UNL1        0.0981
     26 C          67.3446   96.3012    8.8972 C.ar    1  UNL1        0.1193
     27 N          67.7034   94.8805    8.5769 N.ar    1  UNL1       -0.2223
     28 C          67.2679   94.0219    9.7272 C.ar    1  UNL1        0.1787
@<TRIPOS>BOND
     1    21    22    1
     2    22    19    1
     3    19    20    2
     4    19    18    1
     5    18    23    1
     6    23    24    1
     7    24    25   ar
     8    25    26   ar
     9    26    27   ar
    10    27    28   ar
    11    18     1    1
    12     1     2   am
    13     2     3    2
    14     2     5    1
    15     5     6   ar
    16     6     7    1
    17     6     8   ar
    18     8     9   ar
    19     9    12    1
    20    12    13   ar
    21    13    14   ar
    22    14    15   ar
    23    15    16   ar
    24    16    17   ar
    25     9    10   ar
    26    10    11    1
    27    28    24   ar
    28    10     5   ar
    29    17    12   ar
    30     1     4    1
@<TRIPOS>MOLECULE
*****
 28 30 0 0 0
SMALL
GASTEIGER

@<TRIPOS>ATOM
      1 N          62.7492   87.6943   10.8378 N.am    1  UNL1       -0.2916
      2 C          62.3337   88.8645   11.6792 C.2     1  UNL1        0.2498
      3 O          60.9344   88.9447   12.2137 O.2     1  UNL1       -0.2700
      4 H          63.6676   87.6417   10.4870 H       1  UNL1        0.1502
      5 C          63.3174   89.9544   11.9863 C.ar    1  UNL1        0.0970
      6 C          63.5981   91.1552   11.1321 C.ar    1  UNL1        0.0860
      7 C          62.9443   91.4767    9.8209 C.3     1  UNL1        0.0542
      8 N          64.6472   91.9779   11.8193 N.ar    1  UNL1       -0.1685
      9 N          65.0150   91.2857   13.0982 N.ar    1  UNL1       -0.2192
     10 C          64.1931   90.0352   13.2014 C.ar    1  UNL1        0.1453
     11 CL         64.2389   89.0400   14.3228 Cl      1  UNL1       -0.0611
     12 C          66.0271   91.7606   14.0984 C.ar    1  UNL1        0.0837
     13 C          65.5894   92.1605   15.4762 C.ar    1  UNL1        0.0192
     14 C          66.6014   92.6354   16.4763 C.ar    1  UNL1        0.0015
     15 C          68.0511   92.7105   16.0986 C.ar    1  UNL1        0.0001
     16 C          68.4888   92.3106   14.7208 C.ar    1  UNL1        0.0015
     17 C          67.4768   91.8357   13.7207 C.ar    1  UNL1        0.0192
     18 C          61.7656   86.6044   10.5307 C.3     1  UNL1        0.1945
     19 C          60.8275   86.7461    9.3688 C.2     1  UNL1        0.3371
     20 O          60.9266   85.8043    8.2056 O.2     1  UNL1       -0.2482
     21 C          60.0789   89.1448    8.7087 C.3     1  UNL1        0.2557
     22 O          59.7904   87.8298    9.3702 O.3     1  UNL1       -0.4432
     23 C          61.7199   85.3726   11.3856 C.3     1  UNL1        0.1386
     24 N          62.8000   84.3383   11.2690 N.ar    1  UNL1       -0.3055
     25 C          63.2912   83.4484   12.3720 C.ar    1  UNL1        0.0981
     26 C          64.3733   82.5724   11.8136 C.ar    1  UNL1        0.1193
     27 N          64.5507   82.9209   10.3655 N.ar    1  UNL1       -0.2223
     28 C          63.5784   84.0123   10.0289 C.ar    1  UNL1        0.1787
@<TRIPOS>BOND
     1    21    22    1
     2    22    19    1
     3    19    20    2
     4    19    18    1
     5    18    23    1
     6    23    24    1
     7    24    25   ar
     8    25    26   ar
     9    26    27   ar
    10    27    28   ar
    11    18     1    1
    12     1     2   am
    13     2     3    2
    14     2     5    1
    15     5     6   ar
    16     6     7    1
    17     6     8   ar
    18     8     9   ar
    19     9    12    1
    20    12    13   ar
    21    13    14   ar
    22    14    15   ar
    23    15    16   ar
    24    16    17   ar
    25     9    10   ar
    26    10    11    1
    27    28    24   ar
    28    10     5   ar
    29    17    12   ar
    30     1     4    1
@<TRIPOS>MOLECULE
*****
 28 30 0 0 0
SMALL
GASTEIGER

@<TRIPOS>ATOM
      1 N          65.1624   91.9586   11.7080 N.am    1  UNL1       -0.2916
      2 C          64.2562   91.2449   12.6668 C.2     1  UNL1        0.2498
      3 O          63.9883   91.8294   14.0220 O.2     1  UNL1       -0.2700
      4 H          65.3383   91.5749   10.8185 H       1  UNL1        0.1502
      5 C          63.6178   89.9467   12.2704 C.ar    1  UNL1        0.0970
      6 C          63.6343   88.6763   13.0678 C.ar    1  UNL1        0.0860
      7 C          64.2922   88.4810   14.4016 C.3     1  UNL1        0.0542
      8 N          62.8775   87.6354   12.2972 N.ar    1  UNL1       -0.1685
      9 N          62.3932   88.2625   11.0236 N.ar    1  UNL1       -0.2192
     10 C          62.8507   89.6909   11.0070 C.ar    1  UNL1        0.1453
     11 CL         62.5873   90.6885    9.9182 Cl      1  UNL1       -0.0611
     12 C          61.5920   87.5808    9.9542 C.ar    1  UNL1        0.0837
     13 C          60.1837   88.0175    9.6789 C.ar    1  UNL1        0.0192
     14 C          59.3825   87.3358    8.6096 C.ar    1  UNL1        0.0015
     15 C          59.9898   86.2175    7.8156 C.ar    1  UNL1        0.0001
     16 C          61.3981   85.7808    8.0908 C.ar    1  UNL1        0.0015
     17 C          62.1992   86.4624    9.1601 C.ar    1  UNL1        0.0192
     18 C          65.8008   93.2568   12.1044 C.3     1  UNL1        0.1945
     19 C          66.2550   94.2220   11.0498 C.2     1  UNL1        0.3371
     20 O          65.3750   95.3711   10.6558 O.2     1  UNL1       -0.2482
     21 C          67.8345   94.6075    9.0234 C.3     1  UNL1        0.2557
     22 O          67.5891   94.0381   10.3893 O.3     1  UNL1       -0.4432
     23 C          65.9851   93.5897   13.5553 C.3     1  UNL1        0.1386
     24 N          67.1803   93.0702   14.2981 N.ar    1  UNL1       -0.3055
     25 C          67.6029   93.4726   15.6799 C.ar    1  UNL1        0.0981
     26 C          68.8465   92.7083   16.0252 C.ar    1  UNL1        0.1193
     27 N          69.1924   91.8335   14.8569 N.ar    1  UNL1       -0.2223
     28 C          68.1627   92.0572   13.7895 C.ar    1  UNL1        0.1787
@<TRIPOS>BOND
     1    21    22    1
     2    22    19    1
     3    19    20    2
     4    19    18    1
     5    18    23    1
     6    23    24    1
     7    24    25   ar
     8    25    26   ar
     9    26    27   ar
    10    27    28   ar
    11    18     1    1
    12     1     2   am
    13     2     3    2
    14     2     5    1
    15     5     6   ar
    16     6     7    1
    17     6     8   ar
    18     8     9   ar
    19     9    12    1
    20    12    13   ar
    21    13    14   ar
    22    14    15   ar
    23    15    16   ar
    24    16    17   ar
    25     9    10   ar
    26    10    11    1
    27    28    24   ar
    28    10     5   ar
    29    17    12   ar
    30     1     4    1
@<TRIPOS>MOLECULE
*****
 28 30 0 0 0
SMALL
GASTEIGER

@<TRIPOS>ATOM
      1 N          62.9113   88.6391   11.3851 N.am    1  UNL1       -0.2916
      2 C          62.7841   89.7520   12.3828 C.2     1  UNL1        0.2498
      3 O          61.6144   89.7879   13.3212 O.2     1  UNL1       -0.2700
      4 H          63.6789   88.6156   10.7691 H       1  UNL1        0.1502
      5 C          63.8265   90.8289   12.4420 C.ar    1  UNL1        0.0970
      6 C          64.6130   91.2289   13.6551 C.ar    1  UNL1        0.0860
      7 C          64.4951   90.6222   15.0219 C.3     1  UNL1        0.0542
      8 N          65.5381   92.3422   13.2615 N.ar    1  UNL1       -0.1685
      9 N          65.3233   92.6302   11.8051 N.ar    1  UNL1       -0.2192
     10 C          64.2656   91.6949   11.2987 C.ar    1  UNL1        0.1453
     11 CL         63.7392   91.6360    9.8953 Cl      1  UNL1       -0.0611
     12 C          66.0405   93.6707   10.9970 C.ar    1  UNL1        0.0837
     13 C          66.9682   93.2558    9.8938 C.ar    1  UNL1        0.0192
     14 C          67.6853   94.2963    9.0858 C.ar    1  UNL1        0.0015
     15 C          67.4747   95.7518    9.3809 C.ar    1  UNL1        0.0001
     16 C          66.5470   96.1668   10.4841 C.ar    1  UNL1        0.0015
     17 C          65.8299   95.1263   11.2922 C.ar    1  UNL1        0.0192
     18 C          61.8688   87.5622   11.3258 C.3     1  UNL1        0.1945
     19 C          62.2463   86.1370   11.6020 C.2     1  UNL1        0.3371
     20 O          61.8911   85.0627   10.6172 O.2     1  UNL1       -0.2482
     21 C          63.6584   84.4548   12.9898 C.3     1  UNL1        0.2557
     22 O          62.9790   85.7861   12.8629 O.3     1  UNL1       -0.4432
     23 C          60.4489   87.9105   10.9903 C.3     1  UNL1        0.1386
     24 N          60.0149   87.9905    9.5567 N.ar    1  UNL1       -0.3055
     25 C          59.4456   86.8657    8.7439 C.ar    1  UNL1        0.0981
     26 C          59.1529   87.3894    7.3691 C.ar    1  UNL1        0.1193
     27 N          59.5412   88.8377    7.3323 N.ar    1  UNL1       -0.2223
     28 C          60.0739   89.2092    8.6843 C.ar    1  UNL1        0.1787
@<TRIPOS>BOND
     1    21    22    1
     2    22    19    1
     3    19    20    2
     4    19    18    1
     5    18    23    1
     6    23    24    1
     7    24    25   ar
     8    25    26   ar
     9    26    27   ar
    10    27    28   ar
    11    18     1    1
    12     1     2   am
    13     2     3    2
    14     2     5    1
    15     5     6   ar
    16     6     7    1
    17     6     8   ar
    18     8     9   ar
    19     9    12    1
    20    12    13   ar
    21    13    14   ar
    22    14    15   ar
    23    15    16   ar
    24    16    17   ar
    25     9    10   ar
    26    10    11    1
    27    28    24   ar
    28    10     5   ar
    29    17    12   ar
    30     1     4    1
@<TRIPOS>MOLECULE
*****
 28 30 0 0 0
SMALL
GASTEIGER

@<TRIPOS>ATOM
      1 N          62.5129   88.6287   10.8507 N.am    1  UNL1       -0.2916
      2 C          62.4807   89.6310   11.9662 C.2     1  UNL1        0.2498
      3 O          61.3183   89.6617   12.9137 O.2     1  UNL1       -0.2700
      4 H          63.2759   88.6086   10.2288 H       1  UNL1        0.1502
      5 C          63.6110   90.6028   12.1342 C.ar    1  UNL1        0.0970
      6 C          64.4548   90.7699   13.3631 C.ar    1  UNL1        0.0860
      7 C          64.3164   89.9946   14.6397 C.3     1  UNL1        0.0542
      8 N          65.4612   91.8484   13.0911 N.ar    1  UNL1       -0.1685
      9 N          65.2395   92.3478   11.6942 N.ar    1  UNL1       -0.2192
     10 C          64.0960   91.5780   11.1028 C.ar    1  UNL1        0.1453
     11 CL         63.5358   91.7527    9.7223 Cl      1  UNL1       -0.0611
     12 C          66.0236   93.4276   11.0090 C.ar    1  UNL1        0.0837
     13 C          67.0222   93.0710    9.9481 C.ar    1  UNL1        0.0192
     14 C          67.8062   94.1507    9.2629 C.ar    1  UNL1        0.0015
     15 C          67.5916   95.5870    9.6387 C.ar    1  UNL1        0.0001
     16 C          66.5930   95.9435   10.6996 C.ar    1  UNL1        0.0015
     17 C          65.8090   94.8638   11.3848 C.ar    1  UNL1        0.0192
     18 C          61.3826   87.6570   10.6827 C.3     1  UNL1        0.1945
     19 C          60.2537   87.9741    9.7473 C.2     1  UNL1        0.3371
     20 O          59.9355   89.4012    9.4125 O.2     1  UNL1       -0.2482
     21 C          59.7112   86.4155    7.7408 C.3     1  UNL1        0.2557
     22 O          59.4430   86.8641    9.1468 O.3     1  UNL1       -0.4432
     23 C          61.3813   86.3681   11.4501 C.3     1  UNL1        0.1386
     24 N          62.2859   85.2464   11.0337 N.ar    1  UNL1       -0.3055
     25 C          62.7788   84.1377   11.9155 C.ar    1  UNL1        0.0981
     26 C          63.6539   83.2425   11.0892 C.ar    1  UNL1        0.1193
     27 N          63.7018   83.7980    9.6967 N.ar    1  UNL1       -0.2223
     28 C          62.8563   85.0364    9.6624 C.ar    1  UNL1        0.1787
@<TRIPOS>BOND
     1    21    22    1
     2    22    19    1
     3    19    20    2
     4    19    18    1
     5    18    23    1
     6    23    24    1
     7    24    25   ar
     8    25    26   ar
     9    26    27   ar
    10    27    28   ar
    11    18     1    1
    12     1     2   am
    13     2     3    2
    14     2     5    1
    15     5     6   ar
    16     6     7    1
    17     6     8   ar
    18     8     9   ar
    19     9    12    1
    20    12    13   ar
    21    13    14   ar
    22    14    15   ar
    23    15    16   ar
    24    16    17   ar
    25     9    10   ar
    26    10    11    1
    27    28    24   ar
    28    10     5   ar
    29    17    12   ar
    30     1     4    1
@<TRIPOS>MOLECULE
*****
 28 30 0 0 0
SMALL
GASTEIGER

@<TRIPOS>ATOM
      1 N          65.3811   91.2474   12.6118 N.am    1  UNL1       -0.2916
      2 C          64.1516   90.6707   13.2487 C.2     1  UNL1        0.2498
      3 O          63.4490   91.4229   14.3398 O.2     1  UNL1       -0.2700
      4 H          65.8422   90.7537   11.8956 H       1  UNL1        0.1502
      5 C          63.6247   89.3417   12.7947 C.ar    1  UNL1        0.0970
      6 C          62.7650   89.0992   11.5895 C.ar    1  UNL1        0.0860
      7 C          62.2814   90.1430   10.6270 C.3     1  UNL1        0.0542
      8 N          62.4739   87.6295   11.5160 N.ar    1  UNL1       -0.1685
      9 N          63.1537   86.9638   12.6756 N.ar    1  UNL1       -0.2192
     10 C          63.8649   88.0220   13.4659 C.ar    1  UNL1        0.1453
     11 CL         64.6741   87.7995   14.7091 Cl      1  UNL1       -0.0611
     12 C          63.1269   85.4973   12.9899 C.ar    1  UNL1        0.0837
     13 C          62.7907   84.5060   11.9155 C.ar    1  UNL1        0.0192
     14 C          62.7639   83.0396   12.2299 C.ar    1  UNL1        0.0015
     15 C          63.0735   82.5644   13.6185 C.ar    1  UNL1        0.0001
     16 C          63.4098   83.5557   14.6929 C.ar    1  UNL1        0.0015
     17 C          63.4365   85.0221   14.3786 C.ar    1  UNL1        0.0192
     18 C          65.9080   92.5763   13.0659 C.3     1  UNL1        0.1945
     19 C          66.5993   92.6957   14.3917 C.2     1  UNL1        0.3371
     20 O          65.7932   92.7521   15.6555 O.2     1  UNL1       -0.2482
     21 C          68.7746   93.2894   15.6821 C.3     1  UNL1        0.2557
     22 O          68.0966   92.7587   14.4538 O.3     1  UNL1       -0.4432
     23 C          65.7437   93.7859   12.1941 C.3     1  UNL1        0.1386
     24 N          66.5957   93.9499   10.9705 N.ar    1  UNL1       -0.3055
     25 C          67.2960   92.8495   10.2299 C.ar    1  UNL1        0.0981
     26 C          68.0300   93.4625    9.0743 C.ar    1  UNL1        0.1193
     27 N          67.7833   94.9419    9.1008 N.ar    1  UNL1       -0.2223
     28 C          66.8969   95.2430   10.2726 C.ar    1  UNL1        0.1787
@<TRIPOS>BOND
     1    21    22    1
     2    22    19    1
     3    19    20    2
     4    19    18    1
     5    18    23    1
     6    23    24    1
     7    24    25   ar
     8    25    26   ar
     9    26    27   ar
    10    27    28   ar
    11    18     1    1
    12     1     2   am
    13     2     3    2
    14     2     5    1
    15     5     6   ar
    16     6     7    1
    17     6     8   ar
    18     8     9   ar
    19     9    12    1
    20    12    13   ar
    21    13    14   ar
    22    14    15   ar
    23    15    16   ar
    24    16    17   ar
    25     9    10   ar
    26    10    11    1
    27    28    24   ar
    28    10     5   ar
    29    17    12   ar
    30     1     4    1
@<TRIPOS>MOLECULE
*****
 28 30 0 0 0
SMALL
GASTEIGER

@<TRIPOS>ATOM
      1 N          63.1946   87.2091   12.1143 N.am    1  UNL1       -0.2916
      2 C          62.6295   88.5985   12.0969 C.2     1  UNL1        0.2498
      3 O          61.1636   88.8090   11.8585 O.2     1  UNL1       -0.2700
      4 H          64.1567   87.0709   12.2707 H       1  UNL1        0.1502
      5 C          63.5303   89.7773   12.3178 C.ar    1  UNL1        0.0970
      6 C          63.6519   90.9742   11.4218 C.ar    1  UNL1        0.0860
      7 C          62.8941   91.2023   10.1476 C.3     1  UNL1        0.0542
      8 N          64.6644   91.9029   12.0238 N.ar    1  UNL1       -0.1685
      9 N          65.1685   91.2800   13.2918 N.ar    1  UNL1       -0.2192
     10 C          64.4676   89.9663   13.4735 C.ar    1  UNL1        0.1453
     11 CL         64.6687   89.0096   14.6112 Cl      1  UNL1       -0.0611
     12 C          66.1937   91.8676   14.2160 C.ar    1  UNL1        0.0837
     13 C          65.7904   92.3366   15.5825 C.ar    1  UNL1        0.0192
     14 C          66.8155   92.9241   16.5065 C.ar    1  UNL1        0.0015
     15 C          68.2438   93.0427   16.0641 C.ar    1  UNL1        0.0001
     16 C          68.6471   92.5737   14.6976 C.ar    1  UNL1        0.0015
     17 C          67.6220   91.9862   13.7735 C.ar    1  UNL1        0.0192
     18 C          62.2938   86.0302   11.8933 C.3     1  UNL1        0.1945
     19 C          62.4802   84.7816   12.7034 C.2     1  UNL1        0.3371
     20 O          62.0816   84.7591   14.1493 O.2     1  UNL1       -0.2482
     21 C          62.4223   82.2181   12.2856 C.3     1  UNL1        0.2557
     22 O          63.0654   83.5555   12.0676 O.3     1  UNL1       -0.4432
     23 C          61.2065   86.1000   10.8623 C.3     1  UNL1        0.1386
     24 N          61.5078   85.7677    9.4309 N.ar    1  UNL1       -0.3055
     25 C          62.7963   85.2043    8.9090 C.ar    1  UNL1        0.0981
     26 C          62.6583   85.0290    7.4257 C.ar    1  UNL1        0.1193
     27 N          61.2846   85.4839    7.0309 N.ar    1  UNL1       -0.2223
     28 C          60.5736   85.9405    8.2702 C.ar    1  UNL1        0.1787
@<TRIPOS>BOND
     1    21    22    1
     2    22    19    1
     3    19    20    2
     4    19    18    1
     5    18    23    1
     6    23    24    1
     7    24    25   ar
     8    25    26   ar
     9    26    27   ar
    10    27    28   ar
    11    18     1    1
    12     1     2   am
    13     2     3    2
    14     2     5    1
    15     5     6   ar
    16     6     7    1
    17     6     8   ar
    18     8     9   ar
    19     9    12    1
    20    12    13   ar
    21    13    14   ar
    22    14    15   ar
    23    15    16   ar
    24    16    17   ar
    25     9    10   ar
    26    10    11    1
    27    28    24   ar
    28    10     5   ar
    29    17    12   ar
    30     1     4    1
@<TRIPOS>MOLECULE
*****
 28 30 0 0 0
SMALL
GASTEIGER

@<TRIPOS>ATOM
      1 N          64.9096   89.5566   14.3010 N.am    1  UNL1       -0.2916
      2 C          64.9186   90.9436   14.8722 C.2     1  UNL1        0.2498
      3 O          64.2077   91.2282   16.1620 O.2     1  UNL1       -0.2700
      4 H          65.3762   89.3698   13.4544 H       1  UNL1        0.1502
      5 C          65.6384   92.0460   14.1535 C.ar    1  UNL1        0.0970
      6 C          66.6785   92.9515   14.7438 C.ar    1  UNL1        0.0860
      7 C          67.1812   92.9135   16.1566 C.3     1  UNL1        0.0542
      8 N          67.1274   93.9016   13.6735 N.ar    1  UNL1       -0.1685
      9 N          66.3649   93.5833   12.4216 N.ar    1  UNL1       -0.2192
     10 C          65.4447   92.4365   12.7182 C.ar    1  UNL1        0.1453
     11 CL         64.4970   91.7932   11.7497 Cl      1  UNL1       -0.0611
     12 C          66.4991   94.2881   11.1042 C.ar    1  UNL1        0.0837
     13 C          65.8513   95.6254   10.8997 C.ar    1  UNL1        0.0192
     14 C          65.9854   96.3302    9.5824 C.ar    1  UNL1        0.0015
     15 C          66.7674   95.6976    8.4696 C.ar    1  UNL1        0.0001
     16 C          67.4153   94.3603    8.6741 C.ar    1  UNL1        0.0015
     17 C          67.2811   93.6555    9.9914 C.ar    1  UNL1        0.0192
     18 C          64.1898   88.4542   15.0197 C.3     1  UNL1        0.1945
     19 C          63.0941   88.7820   15.9903 C.2     1  UNL1        0.3371
     20 O          61.8976   89.5635   15.5347 O.2     1  UNL1       -0.2482
     21 C          62.7252   86.9567   17.8019 C.3     1  UNL1        0.2557
     22 O          63.1948   88.3281   17.4164 O.3     1  UNL1       -0.4432
     23 C          64.5656   87.0240   14.7678 C.3     1  UNL1        0.1386
     24 N          63.7672   86.1973   13.8040 N.ar    1  UNL1       -0.3055
     25 C          63.5144   84.7223   13.9066 C.ar    1  UNL1        0.0981
     26 C          62.6724   84.3138   12.7344 C.ar    1  UNL1        0.1193
     27 N          62.4047   85.5363   11.9075 N.ar    1  UNL1       -0.2223
     28 C          63.0813   86.7003   12.5685 C.ar    1  UNL1        0.1787
@<TRIPOS>BOND
     1    21    22    1
     2    22    19    1
     3    19    20    2
     4    19    18    1
     5    18    23    1
     6    23    24    1
     7    24    25   ar
     8    25    26   ar
     9    26    27   ar
    10    27    28   ar
    11    18     1    1
    12     1     2   am
    13     2     3    2
    14     2     5    1
    15     5     6   ar
    16     6     7    1
    17     6     8   ar
    18     8     9   ar
    19     9    12    1
    20    12    13   ar
    21    13    14   ar
    22    14    15   ar
    23    15    16   ar
    24    16    17   ar
    25     9    10   ar
    26    10    11    1
    27    28    24   ar
    28    10     5   ar
    29    17    12   ar
    30     1     4    1
@<TRIPOS>MOLECULE
*****
 28 30 0 0 0
SMALL
GASTEIGER

@<TRIPOS>ATOM
      1 N          63.4122   88.7147   11.7200 N.am    1  UNL1       -0.2916
      2 C          63.2839   89.8050   12.7422 C.2     1  UNL1        0.2498
      3 O          62.2391   89.7091   13.8141 O.2     1  UNL1       -0.2700
      4 H          64.0980   88.7777   11.0165 H       1  UNL1        0.1502
      5 C          64.2006   90.9913   12.6924 C.ar    1  UNL1        0.0970
      6 C          64.9530   91.5735   13.8522 C.ar    1  UNL1        0.0860
      7 C          64.9208   91.0715   15.2654 C.3     1  UNL1        0.0542
      8 N          65.7432   92.7457   13.3507 N.ar    1  UNL1       -0.1685
      9 N          65.4792   92.8880   11.8810 N.ar    1  UNL1       -0.2192
     10 C          64.5258   91.8038   11.4742 C.ar    1  UNL1        0.1453
     11 CL         63.9914   91.5725   10.0918 Cl      1  UNL1       -0.0611
     12 C          66.0655   93.9314   10.9768 C.ar    1  UNL1        0.0837
     13 C          65.8121   95.3852   11.2457 C.ar    1  UNL1        0.0192
     14 C          66.3984   96.4285   10.3415 C.ar    1  UNL1        0.0015
     15 C          67.2383   96.0181    9.1684 C.ar    1  UNL1        0.0001
     16 C          67.4918   94.5644    8.8995 C.ar    1  UNL1        0.0015
     17 C          66.9054   93.5210    9.8037 C.ar    1  UNL1        0.0192
     18 C          62.4955   87.5284   11.7698 C.3     1  UNL1        0.1945
     19 C          62.9322   86.2718   12.4628 C.2     1  UNL1        0.3371
     20 O          62.5901   84.9342   11.8763 O.2     1  UNL1       -0.2482
     21 C          63.7916   85.1597   14.6478 C.3     1  UNL1        0.2557
     22 O          63.7111   86.3527   13.7421 O.3     1  UNL1       -0.4432
     23 C          61.1422   87.5988   11.1267 C.3     1  UNL1        0.1386
     24 N          60.3483   88.8700   11.1871 N.ar    1  UNL1       -0.3055
     25 C          59.3086   89.2122   12.2127 C.ar    1  UNL1        0.0981
     26 C          58.7724   90.5759   11.8920 C.ar    1  UNL1        0.1193
     27 N          59.4807   91.0764   10.6682 N.ar    1  UNL1       -0.2223
     28 C          60.4546   90.0222   10.2326 C.ar    1  UNL1        0.1787
@<TRIPOS>BOND
     1    21    22    1
     2    22    19    1
     3    19    20    2
     4    19    18    1
     5    18    23    1
     6    23    24    1
     7    24    25   ar
     8    25    26   ar
     9    26    27   ar
    10    27    28   ar
    11    18     1    1
    12     1     2   am
    13     2     3    2
    14     2     5    1
    15     5     6   ar
    16     6     7    1
    17     6     8   ar
    18     8     9   ar
    19     9    12    1
    20    12    13   ar
    21    13    14   ar
    22    14    15   ar
    23    15    16   ar
    24    16    17   ar
    25     9    10   ar
    26    10    11    1
    27    28    24   ar
    28    10     5   ar
    29    17    12   ar
    30     1     4    1
