@<TRIPOS>MOLECULE
*****
 24 27 0 0 0
SMALL
GASTEIGER

@<TRIPOS>ATOM
      1 C          62.8585   89.3911   15.3410 C.3     1  UNL1        0.0722
      2 C          63.6009   90.3003   14.4071 C.ar    1  UNL1        0.1250
      3 N          64.7440   91.1993   14.7749 N.ar    1  UNL1       -0.2299
      4 C          65.1801   91.9248   13.5365 C.ar    1  UNL1        0.1082
      5 C          66.2598   92.9375   13.2943 C.ar    1  UNL1        0.0875
      6 C          66.4660   93.4996   11.9190 C.ar    1  UNL1        0.0119
      7 C          65.5924   93.0490   10.7859 C.ar    1  UNL1        0.0023
      8 C          64.5127   92.0363   11.0281 C.ar    1  UNL1        0.0191
      9 C          64.3066   91.4742   12.4034 C.ar    1  UNL1        0.0837
     10 N          63.3306   90.4702   12.9415 N.ar    1  UNL1       -0.2882
     11 C          62.2704   89.7607   12.1525 C.ar    1  UNL1        0.0953
     12 C          60.7890   89.8981   12.3435 C.ar    1  UNL1        0.0250
     13 C          60.1085   89.0116   11.3430 C.ar    1  UNL1        0.0131
     14 C          61.1693   88.3264   10.5335 C.ar    1  UNL1        0.0841
     15 S          62.5054   88.7894   11.0339 S.2     1  UNL1       -0.0648
     16 C          60.9351   87.3497    9.4195 C.2     1  UNL1        0.2519
     17 O          59.5554   87.1667    8.8600 O.2     1  UNL1       -0.2696
     18 N          62.0806   86.5559    8.8649 N.am    1  UNL1       -0.3021
     19 H          62.9862   86.6759    9.2320 H       1  UNL1        0.1497
     20 C          61.8464   85.5791    7.7508 C.3     1  UNL1        0.0720
     21 C          60.9030   84.8040    6.8796 C.3     1  UNL1        0.0213
     22 C          62.3844   84.6625    6.6923 C.3     1  UNL1        0.0213
     23 C          67.1334   93.3880   14.4274 C.1     1  UNL1        0.1020
     24 N          68.0069   93.8386   15.5605 N.1     1  UNL1       -0.1908
@<TRIPOS>BOND
     1     1     2    1
     2     2     3   ar
     3     3     4   ar
     4     4     5   ar
     5     5    23    1
     6    23    24    3
     7     5     6   ar
     8     6     7   ar
     9     7     8   ar
    10     8     9   ar
    11     9    10   ar
    12    10    11    1
    13    11    12   ar
    14    12    13   ar
    15    13    14   ar
    16    14    16    1
    17    16    17    2
    18    16    18   am
    19    18    20    1
    20    20    21    1
    21    21    22    1
    22    14    15   ar
    23    10     2   ar
    24    15    11   ar
    25     9     4   ar
    26    22    20    1
    27    18    19    1
@<TRIPOS>MOLECULE
*****
 24 27 0 0 0
SMALL
GASTEIGER

@<TRIPOS>ATOM
      1 C          61.8466   86.3137    9.6913 C.3     1  UNL1        0.0722
      2 C          62.3608   85.6036   10.9084 C.ar    1  UNL1        0.1250
      3 N          62.3892   84.1183   11.1165 N.ar    1  UNL1       -0.2299
      4 C          62.9829   83.8508   12.4678 C.ar    1  UNL1        0.1082
      5 C          63.2590   82.5759   13.2082 C.ar    1  UNL1        0.0875
      6 C          63.8736   82.6209   14.5758 C.ar    1  UNL1        0.0119
      7 C          64.2121   83.9408   15.2029 C.ar    1  UNL1        0.0023
      8 C          63.9360   85.2157   14.4624 C.ar    1  UNL1        0.0191
      9 C          63.3214   85.1707   13.0949 C.ar    1  UNL1        0.0837
     10 N          62.9369   86.2540   12.1311 N.ar    1  UNL1       -0.2882
     11 C          63.1000   87.7287   12.3514 C.ar    1  UNL1        0.0953
     12 C          62.4913   88.8172   11.5180 C.ar    1  UNL1        0.0250
     13 C          62.9154   90.1351   12.0953 C.ar    1  UNL1        0.0131
     14 C          63.7863   89.8611   13.2856 C.ar    1  UNL1        0.0841
     15 S          63.9003   88.3738   13.4437 S.2     1  UNL1       -0.0648
     16 C          64.4300   90.8931   14.1633 C.2     1  UNL1        0.2519
     17 O          63.6231   91.5881   15.2197 O.2     1  UNL1       -0.2696
     18 N          65.8807   91.2302   13.9847 N.am    1  UNL1       -0.3021
     19 H          66.4103   90.7741   13.2914 H       1  UNL1        0.1497
     20 C          66.5244   92.2622   14.8626 C.3     1  UNL1        0.0720
     21 C          66.9359   92.7344   16.2255 C.3     1  UNL1        0.0213
     22 C          67.2279   93.5776   15.0199 C.3     1  UNL1        0.0213
     23 C          62.9205   81.2560   12.5811 C.1     1  UNL1        0.1020
     24 N          62.5820   79.9361   11.9541 N.1     1  UNL1       -0.1908
@<TRIPOS>BOND
     1     1     2    1
     2     2     3   ar
     3     3     4   ar
     4     4     5   ar
     5     5    23    1
     6    23    24    3
     7     5     6   ar
     8     6     7   ar
     9     7     8   ar
    10     8     9   ar
    11     9    10   ar
    12    10    11    1
    13    11    12   ar
    14    12    13   ar
    15    13    14   ar
    16    14    16    1
    17    16    17    2
    18    16    18   am
    19    18    20    1
    20    20    21    1
    21    21    22    1
    22    14    15   ar
    23    10     2   ar
    24    15    11   ar
    25     9     4   ar
    26    22    20    1
    27    18    19    1
@<TRIPOS>MOLECULE
*****
 24 27 0 0 0
SMALL
GASTEIGER

@<TRIPOS>ATOM
      1 C          63.2319   85.6083   16.6061 C.3     1  UNL1        0.0722
      2 C          63.2648   84.9083   15.2799 C.ar    1  UNL1        0.1250
      3 N          63.1302   83.4307   15.0593 N.ar    1  UNL1       -0.2299
      4 C          63.2203   83.1721   13.5845 C.ar    1  UNL1        0.1082
      5 C          63.1536   81.9070   12.7814 C.ar    1  UNL1        0.0875
      6 C          63.2773   81.9596   11.2875 C.ar    1  UNL1        0.0119
      7 C          63.4676   83.2773   10.5966 C.ar    1  UNL1        0.0023
      8 C          63.5343   84.5425   11.3997 C.ar    1  UNL1        0.0191
      9 C          63.4106   84.4898   12.8936 C.ar    1  UNL1        0.0837
     10 N          63.4381   85.5628   13.9415 N.ar    1  UNL1       -0.2882
     11 C          63.6090   87.0324   13.6942 C.ar    1  UNL1        0.0953
     12 C          63.1472   87.7816   12.4795 C.ar    1  UNL1        0.0250
     13 C          63.5244   89.2230   12.6528 C.ar    1  UNL1        0.0131
     14 C          64.2195   89.3647   13.9745 C.ar    1  UNL1        0.0841
     15 S          64.2717   88.0108   14.6181 S.2     1  UNL1       -0.0648
     16 C          64.7662   90.6368   14.5513 C.2     1  UNL1        0.2519
     17 O          63.8613   91.5716   15.2980 O.2     1  UNL1       -0.2696
     18 N          66.2178   90.9742   14.3815 N.am    1  UNL1       -0.3021
     19 H          66.8118   90.3608   13.8914 H       1  UNL1        0.1497
     20 C          66.7645   92.2464   14.9583 C.3     1  UNL1        0.0720
     21 C          67.3884   92.9921   16.1005 C.3     1  UNL1        0.0213
     22 C          67.0876   93.7042   14.8151 C.3     1  UNL1        0.0213
     23 C          62.9632   80.5892   13.4723 C.1     1  UNL1        0.1020
     24 N          62.7729   79.2715   14.1632 N.1     1  UNL1       -0.1908
@<TRIPOS>BOND
     1     1     2    1
     2     2     3   ar
     3     3     4   ar
     4     4     5   ar
     5     5    23    1
     6    23    24    3
     7     5     6   ar
     8     6     7   ar
     9     7     8   ar
    10     8     9   ar
    11     9    10   ar
    12    10    11    1
    13    11    12   ar
    14    12    13   ar
    15    13    14   ar
    16    14    16    1
    17    16    17    2
    18    16    18   am
    19    18    20    1
    20    20    21    1
    21    21    22    1
    22    14    15   ar
    23    10     2   ar
    24    15    11   ar
    25     9     4   ar
    26    22    20    1
    27    18    19    1
@<TRIPOS>MOLECULE
*****
 24 27 0 0 0
SMALL
GASTEIGER

@<TRIPOS>ATOM
      1 C          63.9291   88.5429   15.2233 C.3     1  UNL1        0.0722
      2 C          64.4019   89.7036   14.3992 C.ar    1  UNL1        0.1250
      3 N          65.3054   90.8063   14.8659 N.ar    1  UNL1       -0.2299
      4 C          65.5162   91.7497   13.7189 C.ar    1  UNL1        0.1082
      5 C          66.3123   93.0147   13.5930 C.ar    1  UNL1        0.0875
      6 C          66.3351   93.7601   12.2916 C.ar    1  UNL1        0.0119
      7 C          65.5618   93.2405   11.1160 C.ar    1  UNL1        0.0023
      8 C          64.7657   91.9755   11.2419 C.ar    1  UNL1        0.0191
      9 C          64.7428   91.2301   12.5433 C.ar    1  UNL1        0.0837
     10 N          64.0542   89.9656   12.9638 N.ar    1  UNL1       -0.2882
     11 C          63.1726   89.1127   12.1004 C.ar    1  UNL1        0.0953
     12 C          63.0064   87.6258   12.2072 C.ar    1  UNL1        0.0250
     13 C          62.0336   87.1911   11.1514 C.ar    1  UNL1        0.0131
     14 C          61.5985   88.4094   10.3921 C.ar    1  UNL1        0.0841
     15 S          62.3025   89.5970   10.9787 S.2     1  UNL1       -0.0648
     16 C          60.6296   88.4355    9.2474 C.2     1  UNL1        0.2519
     17 O          59.7363   87.2575    8.9938 O.2     1  UNL1       -0.2696
     18 N          60.5540   89.6396    8.3561 N.am    1  UNL1       -0.3021
     19 H          61.1403   90.4128    8.5225 H       1  UNL1        0.1497
     20 C          59.5851   89.6657    7.2113 C.3     1  UNL1        0.0720
     21 C          58.2854   89.2341    6.5993 C.3     1  UNL1        0.0213
     22 C          59.2066   90.1426    5.8404 C.3     1  UNL1        0.0213
     23 C          67.0856   93.5343   14.7686 C.1     1  UNL1        0.1020
     24 N          67.8589   94.0539   15.9442 N.1     1  UNL1       -0.1908
@<TRIPOS>BOND
     1     1     2    1
     2     2     3   ar
     3     3     4   ar
     4     4     5   ar
     5     5    23    1
     6    23    24    3
     7     5     6   ar
     8     6     7   ar
     9     7     8   ar
    10     8     9   ar
    11     9    10   ar
    12    10    11    1
    13    11    12   ar
    14    12    13   ar
    15    13    14   ar
    16    14    16    1
    17    16    17    2
    18    16    18   am
    19    18    20    1
    20    20    21    1
    21    21    22    1
    22    14    15   ar
    23    10     2   ar
    24    15    11   ar
    25     9     4   ar
    26    22    20    1
    27    18    19    1
@<TRIPOS>MOLECULE
*****
 24 27 0 0 0
SMALL
GASTEIGER

@<TRIPOS>ATOM
      1 C          62.2477   88.8435   10.8981 C.3     1  UNL1        0.0722
      2 C          62.7839   87.8395   11.8750 C.ar    1  UNL1        0.1250
      3 N          62.5680   86.3560   11.8227 N.ar    1  UNL1       -0.2299
      4 C          63.2808   85.7423   12.9911 C.ar    1  UNL1        0.1082
      5 C          63.4169   84.3207   13.4499 C.ar    1  UNL1        0.0875
      6 C          64.2095   84.0033   14.6832 C.ar    1  UNL1        0.0119
      7 C          64.8660   85.1075   15.4577 C.ar    1  UNL1        0.0023
      8 C          64.7299   86.5291   14.9989 C.ar    1  UNL1        0.0191
      9 C          63.9373   86.8465   13.7656 C.ar    1  UNL1        0.0837
     10 N          63.6302   88.1426   13.0758 N.ar    1  UNL1       -0.2882
     11 C          64.0889   89.5030   13.5105 C.ar    1  UNL1        0.0953
     12 C          64.1013   90.0211   14.9181 C.ar    1  UNL1        0.0250
     13 C          64.6357   91.4224   14.8916 C.ar    1  UNL1        0.0131
     14 C          64.9537   91.7704   13.4675 C.ar    1  UNL1        0.0841
     15 S          64.6157   90.5840   12.6141 S.2     1  UNL1       -0.0648
     16 C          65.5116   93.0753   12.9822 C.2     1  UNL1        0.2519
     17 O          66.1297   94.0351   13.9554 O.2     1  UNL1       -0.2696
     18 N          65.4515   93.4207   11.5238 N.am    1  UNL1       -0.3021
     19 H          65.0459   92.7909   10.8851 H       1  UNL1        0.1497
     20 C          66.0095   94.7258   11.0385 C.3     1  UNL1        0.0720
     21 C          67.0060   95.4867   10.2151 C.3     1  UNL1        0.0213
     22 C          65.9793   96.2254   11.0214 C.3     1  UNL1        0.0213
     23 C          62.7604   83.2166   12.6754 C.1     1  UNL1        0.1020
     24 N          62.1039   82.1124   11.9009 N.1     1  UNL1       -0.1908
@<TRIPOS>BOND
     1     1     2    1
     2     2     3   ar
     3     3     4   ar
     4     4     5   ar
     5     5    23    1
     6    23    24    3
     7     5     6   ar
     8     6     7   ar
     9     7     8   ar
    10     8     9   ar
    11     9    10   ar
    12    10    11    1
    13    11    12   ar
    14    12    13   ar
    15    13    14   ar
    16    14    16    1
    17    16    17    2
    18    16    18   am
    19    18    20    1
    20    20    21    1
    21    21    22    1
    22    14    15   ar
    23    10     2   ar
    24    15    11   ar
    25     9     4   ar
    26    22    20    1
    27    18    19    1
@<TRIPOS>MOLECULE
*****
 24 27 0 0 0
SMALL
GASTEIGER

@<TRIPOS>ATOM
      1 C          63.1102   84.9721   12.3489 C.3     1  UNL1        0.0722
      2 C          62.4654   86.1061   11.6085 C.ar    1  UNL1        0.1250
      3 N          61.5522   85.9804   10.4252 N.ar    1  UNL1       -0.2299
      4 C          61.1429   87.3615   10.0067 C.ar    1  UNL1        0.1082
      5 C          60.2544   87.8539    8.9031 C.ar    1  UNL1        0.0875
      6 C          60.0261   89.3256    8.7243 C.ar    1  UNL1        0.0119
      7 C          60.6864   90.3048    9.6490 C.ar    1  UNL1        0.0023
      8 C          61.5749   89.8124   10.7526 C.ar    1  UNL1        0.0191
      9 C          61.8032   88.3408   10.9314 C.ar    1  UNL1        0.0837
     10 N          62.6205   87.5648   11.9214 N.ar    1  UNL1       -0.2882
     11 C          63.4477   88.1458   13.0296 C.ar    1  UNL1        0.0953
     12 C          63.9340   87.4123   14.2444 C.ar    1  UNL1        0.0250
     13 C          64.7207   88.3754   15.0832 C.ar    1  UNL1        0.0131
     14 C          64.7206   89.7040   14.3870 C.ar    1  UNL1        0.0841
     15 S          63.9338   89.5620   13.1178 S.2     1  UNL1       -0.0648
     16 C          65.3897   90.9549   14.8743 C.2     1  UNL1        0.2519
     17 O          64.5935   91.9960   15.6038 O.2     1  UNL1       -0.2696
     18 N          66.8551   91.1647   14.6322 N.am    1  UNL1       -0.3021
     19 H          67.3777   90.4814   14.1535 H       1  UNL1        0.1497
     20 C          67.5242   92.4156   15.1196 C.3     1  UNL1        0.0720
     21 C          68.5792   93.0860   15.9488 C.3     1  UNL1        0.0213
     22 C          67.6281   93.9119   15.1345 C.3     1  UNL1        0.0213
     23 C          59.5941   86.8747    7.9784 C.1     1  UNL1        0.1020
     24 N          58.9338   85.8954    7.0537 N.1     1  UNL1       -0.1908
@<TRIPOS>BOND
     1     1     2    1
     2     2     3   ar
     3     3     4   ar
     4     4     5   ar
     5     5    23    1
     6    23    24    3
     7     5     6   ar
     8     6     7   ar
     9     7     8   ar
    10     8     9   ar
    11     9    10   ar
    12    10    11    1
    13    11    12   ar
    14    12    13   ar
    15    13    14   ar
    16    14    16    1
    17    16    17    2
    18    16    18   am
    19    18    20    1
    20    20    21    1
    21    21    22    1
    22    14    15   ar
    23    10     2   ar
    24    15    11   ar
    25     9     4   ar
    26    22    20    1
    27    18    19    1
@<TRIPOS>MOLECULE
*****
 24 27 0 0 0
SMALL
GASTEIGER

@<TRIPOS>ATOM
      1 C          65.4356   96.8392   -0.4678 C.3     1  UNL1        0.0722
      2 C          65.0451   95.9380   -1.6016 C.ar    1  UNL1        0.1250
      3 N          65.3519   96.1630   -3.0526 N.ar    1  UNL1       -0.2299
      4 C          64.7757   95.0177   -3.8312 C.ar    1  UNL1        0.1082
      5 C          64.7691   94.7037   -5.2979 C.ar    1  UNL1        0.0875
      6 C          64.0995   93.4568   -5.7949 C.ar    1  UNL1        0.0119
      7 C          63.4366   92.5240   -4.8251 C.ar    1  UNL1        0.0023
      8 C          63.4433   92.8380   -3.3584 C.ar    1  UNL1        0.0191
      9 C          64.1129   94.0848   -2.8615 C.ar    1  UNL1        0.0837
     10 N          64.2794   94.6537   -1.4835 N.ar    1  UNL1       -0.2882
     11 C          63.7695   94.0450   -0.2109 C.ar    1  UNL1        0.0953
     12 C          64.5982   93.3463    0.8261 C.ar    1  UNL1        0.0250
     13 C          63.6824   92.8976    1.9260 C.ar    1  UNL1        0.0131
     14 C          62.2877   93.3188    1.5690 C.ar    1  UNL1        0.0841
     15 S          62.3417   94.0280    0.2482 S.2     1  UNL1       -0.0648
     16 C          61.0556   93.0740    2.3886 C.2     1  UNL1        0.2519
     17 O          59.8106   93.8688    2.1270 O.2     1  UNL1       -0.2696
     18 N          61.0684   92.0345    3.4698 N.am    1  UNL1       -0.3021
     19 H          61.8855   91.5129    3.6415 H       1  UNL1        0.1497
     20 C          59.8362   91.7897    4.2895 C.3     1  UNL1        0.0720
     21 C          58.3929   92.0744    4.5821 C.3     1  UNL1        0.0213
     22 C          59.1454   91.0808    5.4165 C.3     1  UNL1        0.0213
     23 C          65.4320   95.6365   -6.2677 C.1     1  UNL1        0.1020
     24 N          66.0949   96.5693   -7.2374 N.1     1  UNL1       -0.1908
@<TRIPOS>BOND
     1     1     2    1
     2     2     3   ar
     3     3     4   ar
     4     4     5   ar
     5     5    23    1
     6    23    24    3
     7     5     6   ar
     8     6     7   ar
     9     7     8   ar
    10     8     9   ar
    11     9    10   ar
    12    10    11    1
    13    11    12   ar
    14    12    13   ar
    15    13    14   ar
    16    14    16    1
    17    16    17    2
    18    16    18   am
    19    18    20    1
    20    20    21    1
    21    21    22    1
    22    14    15   ar
    23    10     2   ar
    24    15    11   ar
    25     9     4   ar
    26    22    20    1
    27    18    19    1
@<TRIPOS>MOLECULE
*****
 24 27 0 0 0
SMALL
GASTEIGER

@<TRIPOS>ATOM
      1 C          60.1374   95.4405   -3.8502 C.3     1  UNL1        0.0722
      2 C          60.7599   94.8046   -2.6427 C.ar    1  UNL1        0.1250
      3 N          62.1076   95.1307   -2.0705 N.ar    1  UNL1       -0.2299
      4 C          62.3247   94.2586   -0.8695 C.ar    1  UNL1        0.1082
      5 C          63.4706   94.1405    0.0912 C.ar    1  UNL1        0.0875
      6 C          63.4029   93.1573    1.2220 C.ar    1  UNL1        0.0119
      7 C          62.1893   92.2922    1.3920 C.ar    1  UNL1        0.0023
      8 C          61.0435   92.4103    0.4313 C.ar    1  UNL1        0.0191
      9 C          61.1111   93.3935   -0.6994 C.ar    1  UNL1        0.0837
     10 N          60.1441   93.7310   -1.7953 N.ar    1  UNL1       -0.2882
     11 C          58.7976   93.1047   -2.0067 C.ar    1  UNL1        0.0953
     12 C          57.7556   92.8774   -0.9519 C.ar    1  UNL1        0.0250
     13 C          56.5706   92.2280   -1.6032 C.ar    1  UNL1        0.0131
     14 C          56.8803   92.0539   -3.0606 C.ar    1  UNL1        0.0841
     15 S          58.2566   92.5958   -3.3098 S.2     1  UNL1       -0.0648
     16 C          55.9730   91.4450   -4.0881 C.2     1  UNL1        0.2519
     17 O          55.7345   92.1503   -5.3904 O.2     1  UNL1       -0.2696
     18 N          55.3042   90.1308   -3.8135 N.am    1  UNL1       -0.3021
     19 H          55.4607   89.6679   -2.9589 H       1  UNL1        0.1497
     20 C          54.3968   89.5218   -4.8411 C.3     1  UNL1        0.0720
     21 C          53.7456   89.5709   -6.1915 C.3     1  UNL1        0.0213
     22 C          53.4766   88.4179   -5.2706 C.3     1  UNL1        0.0213
     23 C          64.6841   95.0056   -0.0789 C.1     1  UNL1        0.1020
     24 N          65.8977   95.8707   -0.2489 N.1     1  UNL1       -0.1908
@<TRIPOS>BOND
     1     1     2    1
     2     2     3   ar
     3     3     4   ar
     4     4     5   ar
     5     5    23    1
     6    23    24    3
     7     5     6   ar
     8     6     7   ar
     9     7     8   ar
    10     8     9   ar
    11     9    10   ar
    12    10    11    1
    13    11    12   ar
    14    12    13   ar
    15    13    14   ar
    16    14    16    1
    17    16    17    2
    18    16    18   am
    19    18    20    1
    20    20    21    1
    21    21    22    1
    22    14    15   ar
    23    10     2   ar
    24    15    11   ar
    25     9     4   ar
    26    22    20    1
    27    18    19    1
@<TRIPOS>MOLECULE
*****
 24 27 0 0 0
SMALL
GASTEIGER

@<TRIPOS>ATOM
      1 C          63.5845   89.4924   15.9297 C.3     1  UNL1        0.0722
      2 C          64.2908   90.3792   14.9475 C.ar    1  UNL1        0.1250
      3 N          65.2589   91.4739   15.2856 N.ar    1  UNL1       -0.2299
      4 C          65.7195   92.0983   14.0019 C.ar    1  UNL1        0.1082
      5 C          66.6729   93.2207   13.7171 C.ar    1  UNL1        0.0875
      6 C          66.9429   93.6343   12.3007 C.ar    1  UNL1        0.0119
      7 C          66.2594   92.9254   11.1692 C.ar    1  UNL1        0.0023
      8 C          65.3060   91.8030   11.4540 C.ar    1  UNL1        0.0191
      9 C          65.0361   91.3894   12.8703 C.ar    1  UNL1        0.0837
     10 N          64.1531   90.3270   13.4548 N.ar    1  UNL1       -0.2882
     11 C          63.2849   89.3788   12.6821 C.ar    1  UNL1        0.0953
     12 C          62.0849   89.7508   11.8624 C.ar    1  UNL1        0.0250
     13 C          61.5225   88.4940   11.2671 C.ar    1  UNL1        0.0131
     14 C          62.3749   87.3453   11.7188 C.ar    1  UNL1        0.0841
     15 S          63.4640   87.8922   12.5933 S.2     1  UNL1       -0.0648
     16 C          62.1735   85.9031   11.3592 C.2     1  UNL1        0.2519
     17 O          61.1768   85.5254   10.3037 O.2     1  UNL1       -0.2696
     18 N          62.9686   84.8385   12.0551 N.am    1  UNL1       -0.3021
     19 H          63.6228   85.0864   12.7479 H       1  UNL1        0.1497
     20 C          62.7672   83.3963   11.6955 C.3     1  UNL1        0.0720
     21 C          62.9496   82.2594   10.7341 C.3     1  UNL1        0.0213
     22 C          62.2358   82.0350   12.0340 C.3     1  UNL1        0.0213
     23 C          67.3564   93.9296   14.8486 C.1     1  UNL1        0.1020
     24 N          68.0398   94.6384   15.9802 N.1     1  UNL1       -0.1908
@<TRIPOS>BOND
     1     1     2    1
     2     2     3   ar
     3     3     4   ar
     4     4     5   ar
     5     5    23    1
     6    23    24    3
     7     5     6   ar
     8     6     7   ar
     9     7     8   ar
    10     8     9   ar
    11     9    10   ar
    12    10    11    1
    13    11    12   ar
    14    12    13   ar
    15    13    14   ar
    16    14    16    1
    17    16    17    2
    18    16    18   am
    19    18    20    1
    20    20    21    1
    21    21    22    1
    22    14    15   ar
    23    10     2   ar
    24    15    11   ar
    25     9     4   ar
    26    22    20    1
    27    18    19    1
