@<TRIPOS>MOLECULE
*****
 28 29 0 0 0
SMALL
GASTEIGER

@<TRIPOS>ATOM
      1 C          65.1017   92.0940   12.6314 C.ar    1  UNL1        0.1481
      2 C          63.9867   91.1963   12.1831 C.ar    1  UNL1        0.0376
      3 C          63.6147   89.9960   13.0022 C.ar    1  UNL1        0.0032
      4 C          64.3577   89.6934   14.2696 C.ar    1  UNL1        0.0010
      5 C          65.4726   90.5910   14.7179 C.ar    1  UNL1        0.0133
      6 C          65.8446   91.7913   13.8989 C.ar    1  UNL1        0.1023
      7 C          63.9856   88.4931   15.0886 C.ar    1  UNL1        0.0029
      8 C          63.2602   88.6685   16.3898 C.ar    1  UNL1        0.0207
      9 C          62.8882   87.4682   17.2088 C.ar    1  UNL1        0.0987
     10 N          63.2416   86.0925   16.7268 N.ar    1  UNL1       -0.2426
     11 C          63.9670   85.9170   15.4257 C.ar    1  UNL1        0.1249
     12 C          64.3390   87.1173   14.6066 C.ar    1  UNL1        0.0203
     13 C          64.3204   84.5412   14.9435 C.3     1  UNL1        0.3581
     14 F          63.8027   83.3357   15.6707 F       1  UNL1       -0.1915
     15 F          65.1915   84.3710   13.7344 F       1  UNL1       -0.1915
     16 C          66.9596   92.6890   14.3473 C.1     1  UNL1        0.1035
     17 N          68.0746   93.5866   14.7957 N.1     1  UNL1       -0.1907
     18 O          65.4737   93.2943   11.8124 O.3     1  UNL1       -0.4734
     19 C          65.9531   93.1204   10.4018 C.3     1  UNL1        0.2193
     20 C          67.3331   93.5662   10.0183 C.3     1  UNL1        0.0798
     21 C          67.6877   92.1551    9.6537 C.3     1  UNL1        0.0193
     22 N          68.7130   94.0121    9.6348 N.3     1  UNL1       -0.3203
     23 H          69.2308   93.2221    9.2499 H       1  UNL1        0.1189
     24 H          69.1972   94.3667   10.4595 H       1  UNL1        0.1189
     25 C          66.9784   94.9774   10.3829 C.3     1  UNL1        0.0179
     26 C          66.6513   95.8591    7.9610 C.3     1  UNL1        0.0000
     27 C          66.2414   95.8423    9.4038 C.3     1  UNL1        0.0014
     28 C          65.0945   96.6906    9.8675 C.3     1  UNL1        0.0000
@<TRIPOS>BOND
     1    26    27    1
     2    27    28    1
     3    27    25    1
     4    25    20    1
     5    20    21    1
     6    20    22    1
     7    20    19    1
     8    19    18    1
     9    18     1    1
    10     1     2   ar
    11     2     3   ar
    12     3     4   ar
    13     4     7    1
    14     7     8   ar
    15     8     9   ar
    16     9    10   ar
    17    10    11   ar
    18    11    13    1
    19    13    14    1
    20    13    15    1
    21    11    12   ar
    22     4     5   ar
    23     5     6   ar
    24     6    16    1
    25    16    17    3
    26     6     1   ar
    27    12     7   ar
    28    22    23    1
    29    22    24    1
@<TRIPOS>MOLECULE
*****
 28 29 0 0 0
SMALL
GASTEIGER

@<TRIPOS>ATOM
      1 C          63.8303   91.2414   12.1409 C.ar    1  UNL1        0.1481
      2 C          63.5688   91.4929   10.6855 C.ar    1  UNL1        0.0376
      3 C          62.8370   90.4706    9.8674 C.ar    1  UNL1        0.0032
      4 C          62.3668   89.1967   10.5046 C.ar    1  UNL1        0.0010
      5 C          62.6283   88.9452   11.9601 C.ar    1  UNL1        0.0133
      6 C          63.3601   89.9676   12.7782 C.ar    1  UNL1        0.1023
      7 C          61.6350   88.1744    9.6865 C.ar    1  UNL1        0.0029
      8 C          60.1549   88.3002    9.4780 C.ar    1  UNL1        0.0207
      9 C          59.4232   87.2779    8.6599 C.ar    1  UNL1        0.0987
     10 N          60.1715   86.1297    8.0502 N.ar    1  UNL1       -0.2426
     11 C          61.6515   86.0039    8.2587 C.ar    1  UNL1        0.1249
     12 C          62.3833   87.0262    9.0769 C.ar    1  UNL1        0.0203
     13 C          62.3999   84.8557    7.6491 C.3     1  UNL1        0.3581
     14 F          62.1262   84.4504    6.2311 F       1  UNL1       -0.1915
     15 F          63.4219   84.1128    8.4575 F       1  UNL1       -0.1915
     16 C          63.6216   89.7160   14.2337 C.1     1  UNL1        0.1035
     17 N          63.8830   89.4645   15.6891 N.1     1  UNL1       -0.1907
     18 O          64.5621   92.2637   12.9591 O.3     1  UNL1       -0.4734
     19 C          65.6634   93.0718   12.3393 C.3     1  UNL1        0.2193
     20 C          67.0410   92.4913   12.2152 C.3     1  UNL1        0.0798
     21 C          67.2314   92.6264   13.6970 C.3     1  UNL1        0.0193
     22 N          68.4185   91.9108   12.0911 N.3     1  UNL1       -0.3203
     23 H          68.8266   91.8020   13.0196 H       1  UNL1        0.1189
     24 H          69.0018   92.5355   11.5345 H       1  UNL1        0.1189
     25 C          66.8506   92.3562   10.7335 C.3     1  UNL1        0.0179
     26 C          68.7582   92.3563    8.9698 C.3     1  UNL1        0.0000
     27 C          67.7482   93.1017    9.7909 C.3     1  UNL1        0.0014
     28 C          67.6357   94.5926    9.6695 C.3     1  UNL1        0.0000
@<TRIPOS>BOND
     1    26    27    1
     2    27    28    1
     3    27    25    1
     4    25    20    1
     5    20    21    1
     6    20    22    1
     7    20    19    1
     8    19    18    1
     9    18     1    1
    10     1     2   ar
    11     2     3   ar
    12     3     4   ar
    13     4     7    1
    14     7     8   ar
    15     8     9   ar
    16     9    10   ar
    17    10    11   ar
    18    11    13    1
    19    13    14    1
    20    13    15    1
    21    11    12   ar
    22     4     5   ar
    23     5     6   ar
    24     6    16    1
    25    16    17    3
    26     6     1   ar
    27    12     7   ar
    28    22    23    1
    29    22    24    1
@<TRIPOS>MOLECULE
*****
 28 29 0 0 0
SMALL
GASTEIGER

@<TRIPOS>ATOM
      1 C          63.8068   91.0065   12.4143 C.ar    1  UNL1        0.1481
      2 C          63.6221   91.3515   10.9662 C.ar    1  UNL1        0.0376
      3 C          62.9190   90.3937   10.0507 C.ar    1  UNL1        0.0032
      4 C          62.4006   89.0908   10.5832 C.ar    1  UNL1        0.0010
      5 C          62.5852   88.7457   12.0312 C.ar    1  UNL1        0.0133
      6 C          63.2883   89.7035   12.9467 C.ar    1  UNL1        0.1023
      7 C          61.6975   88.1329    9.6676 C.ar    1  UNL1        0.0029
      8 C          60.2534   88.3474    9.3234 C.ar    1  UNL1        0.0207
      9 C          59.5504   87.3896    8.4079 C.ar    1  UNL1        0.0987
     10 N          60.2914   86.2173    7.8365 N.ar    1  UNL1       -0.2426
     11 C          61.7355   86.0027    8.1808 C.ar    1  UNL1        0.1249
     12 C          62.4385   86.9606    9.0963 C.ar    1  UNL1        0.0203
     13 C          62.4766   84.8303    7.6094 C.3     1  UNL1        0.3581
     14 F          62.2791   84.4460    6.1730 F       1  UNL1       -0.1915
     15 F          63.4150   84.0424    8.4745 F       1  UNL1       -0.1915
     16 C          63.4729   89.3584   14.3948 C.1     1  UNL1        0.1035
     17 N          63.6576   89.0133   15.8428 N.1     1  UNL1       -0.1907
     18 O          64.5098   91.9643   13.3298 O.3     1  UNL1       -0.4734
     19 C          65.6688   92.7713   12.8243 C.3     1  UNL1        0.2193
     20 C          67.0539   92.1964   12.8567 C.3     1  UNL1        0.0798
     21 C          67.3021   92.7167   11.4719 C.3     1  UNL1        0.0193
     22 N          68.4390   91.6216   12.8890 N.3     1  UNL1       -0.3203
     23 H          68.9357   91.8833   12.0374 H       1  UNL1        0.1189
     24 H          68.3838   90.6050   12.9517 H       1  UNL1        0.1189
     25 C          66.8056   91.6762   14.2415 C.3     1  UNL1        0.0179
     26 C          68.0782   93.5154   15.5634 C.3     1  UNL1        0.0000
     27 C          66.8974   92.6019   15.4181 C.3     1  UNL1        0.0014
     28 C          65.8082   92.6142   16.4495 C.3     1  UNL1        0.0000
@<TRIPOS>BOND
     1    26    27    1
     2    27    28    1
     3    27    25    1
     4    25    20    1
     5    20    21    1
     6    20    22    1
     7    20    19    1
     8    19    18    1
     9    18     1    1
    10     1     2   ar
    11     2     3   ar
    12     3     4   ar
    13     4     7    1
    14     7     8   ar
    15     8     9   ar
    16     9    10   ar
    17    10    11   ar
    18    11    13    1
    19    13    14    1
    20    13    15    1
    21    11    12   ar
    22     4     5   ar
    23     5     6   ar
    24     6    16    1
    25    16    17    3
    26     6     1   ar
    27    12     7   ar
    28    22    23    1
    29    22    24    1
@<TRIPOS>MOLECULE
*****
 28 29 0 0 0
SMALL
GASTEIGER

@<TRIPOS>ATOM
      1 C          65.6860   92.8001   13.1071 C.ar    1  UNL1        0.1481
      2 C          64.6240   91.9704   12.4485 C.ar    1  UNL1        0.0376
      3 C          64.1228   90.7250   13.1176 C.ar    1  UNL1        0.0032
      4 C          64.6836   90.3092   14.4452 C.ar    1  UNL1        0.0010
      5 C          65.7456   91.1389   15.1037 C.ar    1  UNL1        0.0133
      6 C          66.2468   92.3843   14.4346 C.ar    1  UNL1        0.1023
      7 C          64.1824   89.0638   15.1143 C.ar    1  UNL1        0.0029
      8 C          63.3744   89.1625   16.3742 C.ar    1  UNL1        0.0207
      9 C          62.8732   87.9170   17.0432 C.ar    1  UNL1        0.0987
     10 N          63.1799   86.5729   16.4524 N.ar    1  UNL1       -0.2426
     11 C          63.9879   86.4742   15.1925 C.ar    1  UNL1        0.1249
     12 C          64.4891   87.7196   14.5235 C.ar    1  UNL1        0.0203
     13 C          64.2947   85.1300   14.6016 C.3     1  UNL1        0.3581
     14 F          63.1767   84.2065   14.2179 F       1  UNL1       -0.1915
     15 F          65.7195   84.7093   14.3945 F       1  UNL1       -0.1915
     16 C          67.3089   93.2140   15.0932 C.1     1  UNL1        0.1035
     17 N          68.3710   94.0436   15.7518 N.1     1  UNL1       -0.1907
     18 O          66.1872   94.0455   12.4380 O.3     1  UNL1       -0.4734
     19 C          65.8075   94.3381   11.0167 C.3     1  UNL1        0.2193
     20 C          66.8569   94.7607   10.0317 C.3     1  UNL1        0.0798
     21 C          66.8327   96.1481   10.6012 C.3     1  UNL1        0.0193
     22 N          67.9063   95.1832    9.0468 N.3     1  UNL1       -0.3203
     23 H          68.1782   96.1485    9.2328 H       1  UNL1        0.1189
     24 H          67.5329   95.1116    8.1003 H       1  UNL1        0.1189
     25 C          66.8811   93.3732    9.4623 C.3     1  UNL1        0.0179
     26 C          68.9574   92.1410    8.5028 C.3     1  UNL1        0.0000
     27 C          68.0826   92.4990    9.6675 C.3     1  UNL1        0.0014
     28 C          68.4094   91.9829   11.0375 C.3     1  UNL1        0.0000
@<TRIPOS>BOND
     1    26    27    1
     2    27    28    1
     3    27    25    1
     4    25    20    1
     5    20    21    1
     6    20    22    1
     7    20    19    1
     8    19    18    1
     9    18     1    1
    10     1     2   ar
    11     2     3   ar
    12     3     4   ar
    13     4     7    1
    14     7     8   ar
    15     8     9   ar
    16     9    10   ar
    17    10    11   ar
    18    11    13    1
    19    13    14    1
    20    13    15    1
    21    11    12   ar
    22     4     5   ar
    23     5     6   ar
    24     6    16    1
    25    16    17    3
    26     6     1   ar
    27    12     7   ar
    28    22    23    1
    29    22    24    1
@<TRIPOS>MOLECULE
*****
 28 29 0 0 0
SMALL
GASTEIGER

@<TRIPOS>ATOM
      1 C          62.0366   88.9671   10.6631 C.ar    1  UNL1        0.1481
      2 C          62.1269   90.3703   10.1409 C.ar    1  UNL1        0.0376
      3 C          63.0726   91.3470   10.7747 C.ar    1  UNL1        0.0032
      4 C          63.9279   90.9205   11.9308 C.ar    1  UNL1        0.0010
      5 C          63.8375   89.5173   12.4530 C.ar    1  UNL1        0.0133
      6 C          62.8918   88.5406   11.8192 C.ar    1  UNL1        0.1023
      7 C          64.8735   91.8973   12.5646 C.ar    1  UNL1        0.0029
      8 C          65.4484   93.0196   11.7524 C.ar    1  UNL1        0.0207
      9 C          66.3940   93.9963   12.3862 C.ar    1  UNL1        0.0987
     10 N          66.7648   93.8507   13.8323 N.ar    1  UNL1       -0.2426
     11 C          66.1899   92.7284   14.6446 C.ar    1  UNL1        0.1249
     12 C          65.2442   91.7517   14.0108 C.ar    1  UNL1        0.0203
     13 C          66.5606   92.5828   16.0908 C.3     1  UNL1        0.3581
     14 F          65.4954   92.6251   17.1460 F       1  UNL1       -0.1915
     15 F          67.9965   92.3948   16.4817 F       1  UNL1       -0.1915
     16 C          62.8015   87.1373   12.3415 C.1     1  UNL1        0.1035
     17 N          62.7111   85.7341   12.8637 N.1     1  UNL1       -0.1907
     18 O          61.0909   87.9903   10.0292 O.3     1  UNL1       -0.4734
     19 C          60.7511   88.1123    8.5734 C.3     1  UNL1        0.2193
     20 C          59.7012   87.2262    7.9715 C.3     1  UNL1        0.0798
     21 C          59.0044   88.4312    7.4126 C.3     1  UNL1        0.0193
     22 N          58.6512   86.3400    7.3695 N.3     1  UNL1       -0.3203
     23 H          58.0053   86.9045    6.8177 H       1  UNL1        0.1189
     24 H          58.1387   85.8664    8.1135 H       1  UNL1        0.1189
     25 C          60.3979   86.0211    8.5304 C.3     1  UNL1        0.0179
     26 C          61.4717   84.8375    6.4819 C.3     1  UNL1        0.0000
     27 C          61.6066   85.4651    7.8377 C.3     1  UNL1        0.0014
     28 C          62.9502   85.5366    8.5007 C.3     1  UNL1        0.0000
@<TRIPOS>BOND
     1    26    27    1
     2    27    28    1
     3    27    25    1
     4    25    20    1
     5    20    21    1
     6    20    22    1
     7    20    19    1
     8    19    18    1
     9    18     1    1
    10     1     2   ar
    11     2     3   ar
    12     3     4   ar
    13     4     7    1
    14     7     8   ar
    15     8     9   ar
    16     9    10   ar
    17    10    11   ar
    18    11    13    1
    19    13    14    1
    20    13    15    1
    21    11    12   ar
    22     4     5   ar
    23     5     6   ar
    24     6    16    1
    25    16    17    3
    26     6     1   ar
    27    12     7   ar
    28    22    23    1
    29    22    24    1
@<TRIPOS>MOLECULE
*****
 28 29 0 0 0
SMALL
GASTEIGER

@<TRIPOS>ATOM
      1 C          63.0875   87.0245   12.4340 C.ar    1  UNL1        0.1481
      2 C          63.8610   86.7564   13.6908 C.ar    1  UNL1        0.0376
      3 C          64.4023   87.8999   14.4968 C.ar    1  UNL1        0.0032
      4 C          64.1700   89.3114   14.0458 C.ar    1  UNL1        0.0010
      5 C          63.3964   89.5795   12.7890 C.ar    1  UNL1        0.0133
      6 C          62.8552   88.4360   11.9830 C.ar    1  UNL1        0.1023
      7 C          64.7112   90.4549   14.8517 C.ar    1  UNL1        0.0029
      8 C          63.9081   91.0196   15.9858 C.ar    1  UNL1        0.0207
      9 C          64.4493   92.1631   16.7917 C.ar    1  UNL1        0.0987
     10 N          65.7936   92.7419   16.4635 N.ar    1  UNL1       -0.2426
     11 C          66.5967   92.1772   15.3295 C.ar    1  UNL1        0.1249
     12 C          66.0555   91.0338   14.5236 C.ar    1  UNL1        0.0203
     13 C          67.9411   92.7561   15.0013 C.3     1  UNL1        0.3581
     14 F          68.7990   92.1125   13.9525 F       1  UNL1       -0.1915
     15 F          68.4276   93.9783   15.7219 F       1  UNL1       -0.1915
     16 C          62.0816   88.7042   10.7261 C.1     1  UNL1        0.1035
     17 N          61.3081   88.9724    9.4693 N.1     1  UNL1       -0.1907
     18 O          62.5463   85.8810   11.6281 O.3     1  UNL1       -0.4734
     19 C          62.6772   84.4762   12.1374 C.3     1  UNL1        0.2193
     20 C          63.7840   83.5967   11.6360 C.3     1  UNL1        0.0798
     21 C          63.4418   83.9709   10.2243 C.3     1  UNL1        0.0193
     22 N          64.8908   82.7171   11.1345 N.3     1  UNL1       -0.3203
     23 H          64.9668   82.8105   10.1216 H       1  UNL1        0.1189
     24 H          64.6877   81.7462   11.3722 H       1  UNL1        0.1189
     25 C          64.1262   83.2225   13.0476 C.3     1  UNL1        0.0179
     26 C          62.6561   83.2575   15.1894 C.3     1  UNL1        0.0000
     27 C          63.0930   82.5797   13.9247 C.3     1  UNL1        0.0014
     28 C          62.4966   81.2590   13.5369 C.3     1  UNL1        0.0000
@<TRIPOS>BOND
     1    26    27    1
     2    27    28    1
     3    27    25    1
     4    25    20    1
     5    20    21    1
     6    20    22    1
     7    20    19    1
     8    19    18    1
     9    18     1    1
    10     1     2   ar
    11     2     3   ar
    12     3     4   ar
    13     4     7    1
    14     7     8   ar
    15     8     9   ar
    16     9    10   ar
    17    10    11   ar
    18    11    13    1
    19    13    14    1
    20    13    15    1
    21    11    12   ar
    22     4     5   ar
    23     5     6   ar
    24     6    16    1
    25    16    17    3
    26     6     1   ar
    27    12     7   ar
    28    22    23    1
    29    22    24    1
@<TRIPOS>MOLECULE
*****
 28 29 0 0 0
SMALL
GASTEIGER

@<TRIPOS>ATOM
      1 C          64.0225   89.2199   13.6681 C.ar    1  UNL1        0.1481
      2 C          64.4813   88.2763   14.7400 C.ar    1  UNL1        0.0376
      3 C          64.2099   86.8066   14.6119 C.ar    1  UNL1        0.0032
      4 C          63.4796   86.2806   13.4119 C.ar    1  UNL1        0.0010
      5 C          63.0209   87.2242   12.3400 C.ar    1  UNL1        0.0133
      6 C          63.2923   88.6939   12.4681 C.ar    1  UNL1        0.1023
      7 C          63.2082   84.8109   13.2838 C.ar    1  UNL1        0.0029
      8 C          62.6031   84.0572   14.4309 C.ar    1  UNL1        0.0207
      9 C          62.3317   82.5875   14.3028 C.ar    1  UNL1        0.0987
     10 N          62.6653   81.8716   13.0277 N.ar    1  UNL1       -0.2426
     11 C          63.2703   82.6253   11.8806 C.ar    1  UNL1        0.1249
     12 C          63.5417   84.0949   12.0087 C.ar    1  UNL1        0.0203
     13 C          63.6039   81.9093   10.6053 C.3     1  UNL1        0.3581
     14 F          62.9615   80.5896   10.2960 F       1  UNL1       -0.1915
     15 F          64.5799   82.5131    9.6395 F       1  UNL1       -0.1915
     16 C          62.8335   89.6375   11.3961 C.1     1  UNL1        0.1035
     17 N          62.3748   90.5811   10.3242 N.1     1  UNL1       -0.1907
     18 O          64.2940   90.6896   13.7962 O.3     1  UNL1       -0.4734
     19 C          65.5200   91.1657   14.5173 C.3     1  UNL1        0.2193
     20 C          65.9584   92.5945   14.3886 C.3     1  UNL1        0.0798
     21 C          66.3259   92.6127   15.8427 C.3     1  UNL1        0.0193
     22 N          66.3968   94.0232   14.2599 N.3     1  UNL1       -0.3203
     23 H          66.7952   94.3376   15.1446 H       1  UNL1        0.1189
     24 H          65.5935   94.6053   14.0227 H       1  UNL1        0.1189
     25 C          65.5910   92.5762   12.9344 C.3     1  UNL1        0.0179
     26 C          67.9333   91.8599   12.0682 C.3     1  UNL1        0.0000
     27 C          66.6645   92.6396   11.8887 C.3     1  UNL1        0.0014
     28 C          66.4692   93.4827   10.6635 C.3     1  UNL1        0.0000
@<TRIPOS>BOND
     1    26    27    1
     2    27    28    1
     3    27    25    1
     4    25    20    1
     5    20    21    1
     6    20    22    1
     7    20    19    1
     8    19    18    1
     9    18     1    1
    10     1     2   ar
    11     2     3   ar
    12     3     4   ar
    13     4     7    1
    14     7     8   ar
    15     8     9   ar
    16     9    10   ar
    17    10    11   ar
    18    11    13    1
    19    13    14    1
    20    13    15    1
    21    11    12   ar
    22     4     5   ar
    23     5     6   ar
    24     6    16    1
    25    16    17    3
    26     6     1   ar
    27    12     7   ar
    28    22    23    1
    29    22    24    1
@<TRIPOS>MOLECULE
*****
 28 29 0 0 0
SMALL
GASTEIGER

@<TRIPOS>ATOM
      1 C          63.9074   89.4657   13.4537 C.ar    1  UNL1        0.1481
      2 C          64.4192   88.6168   14.5794 C.ar    1  UNL1        0.0376
      3 C          64.2226   87.1300   14.5470 C.ar    1  UNL1        0.0032
      4 C          63.5141   86.4923   13.3889 C.ar    1  UNL1        0.0010
      5 C          63.0023   87.3412   12.2631 C.ar    1  UNL1        0.0133
      6 C          63.1989   88.8279   12.2955 C.ar    1  UNL1        0.1023
      7 C          63.3175   85.0056   13.3565 C.ar    1  UNL1        0.0029
      8 C          62.8744   84.2805   14.5925 C.ar    1  UNL1        0.0207
      9 C          62.6778   82.7938   14.5601 C.ar    1  UNL1        0.0987
     10 N          62.9243   82.0321   13.2916 N.ar    1  UNL1       -0.2426
     11 C          63.3674   82.7572   12.0556 C.ar    1  UNL1        0.1249
     12 C          63.5640   84.2439   12.0880 C.ar    1  UNL1        0.0203
     13 C          63.6140   81.9955   10.7870 C.3     1  UNL1        0.3581
     14 F          64.5388   82.5524    9.7456 F       1  UNL1       -0.1915
     15 F          62.9357   80.6771   10.5600 F       1  UNL1       -0.1915
     16 C          62.6870   89.6768   11.1697 C.1     1  UNL1        0.1035
     17 N          62.1751   90.5257   10.0440 N.1     1  UNL1       -0.1907
     18 O          64.1040   90.9524   13.4861 O.3     1  UNL1       -0.4734
     19 C          65.4612   91.5234   13.7719 C.3     1  UNL1        0.2193
     20 C          65.9190   92.7619   13.0601 C.3     1  UNL1        0.0798
     21 C          65.1852   92.3245   11.8271 C.3     1  UNL1        0.0193
     22 N          66.3767   94.0003   12.3483 N.3     1  UNL1       -0.3203
     23 H          65.9546   94.0348   11.4204 H       1  UNL1        0.1189
     24 H          67.3927   93.9855   12.2593 H       1  UNL1        0.1189
     25 C          66.6528   93.1993   14.2930 C.3     1  UNL1        0.0179
     26 C          68.2018   92.3230   16.1859 C.3     1  UNL1        0.0000
     27 C          67.8916   92.4727   14.7259 C.3     1  UNL1        0.0014
     28 C          68.8203   91.8958   13.6989 C.3     1  UNL1        0.0000
@<TRIPOS>BOND
     1    26    27    1
     2    27    28    1
     3    27    25    1
     4    25    20    1
     5    20    21    1
     6    20    22    1
     7    20    19    1
     8    19    18    1
     9    18     1    1
    10     1     2   ar
    11     2     3   ar
    12     3     4   ar
    13     4     7    1
    14     7     8   ar
    15     8     9   ar
    16     9    10   ar
    17    10    11   ar
    18    11    13    1
    19    13    14    1
    20    13    15    1
    21    11    12   ar
    22     4     5   ar
    23     5     6   ar
    24     6    16    1
    25    16    17    3
    26     6     1   ar
    27    12     7   ar
    28    22    23    1
    29    22    24    1
@<TRIPOS>MOLECULE
*****
 28 29 0 0 0
SMALL
GASTEIGER

@<TRIPOS>ATOM
      1 C          63.0903   87.2087   12.5008 C.ar    1  UNL1        0.1481
      2 C          62.9357   88.6234   12.0267 C.ar    1  UNL1        0.0376
      3 C          63.5286   89.7495   12.8206 C.ar    1  UNL1        0.0032
      4 C          64.2761   89.4609   14.0887 C.ar    1  UNL1        0.0010
      5 C          64.4307   88.0462   14.5627 C.ar    1  UNL1        0.0133
      6 C          63.8378   86.9202   13.7688 C.ar    1  UNL1        0.1023
      7 C          64.8690   90.5870   14.8826 C.ar    1  UNL1        0.0029
      8 C          64.0949   91.1962   16.0137 C.ar    1  UNL1        0.0207
      9 C          64.6878   92.3223   16.8077 C.ar    1  UNL1        0.0987
     10 N          66.0549   92.8392   16.4705 N.ar    1  UNL1       -0.2426
     11 C          66.8291   92.2300   15.3394 C.ar    1  UNL1        0.1249
     12 C          66.2362   91.1039   14.5454 C.ar    1  UNL1        0.0203
     13 C          68.1963   92.7470   15.0021 C.3     1  UNL1        0.3581
     14 F          68.7800   93.8878   15.7816 F       1  UNL1       -0.1915
     15 F          68.9796   92.1230   13.8855 F       1  UNL1       -0.1915
     16 C          63.9924   85.5054   14.2429 C.1     1  UNL1        0.1035
     17 N          64.1470   84.0908   14.7170 N.1     1  UNL1       -0.1907
     18 O          62.4974   86.0826   11.7068 O.3     1  UNL1       -0.4734
     19 C          61.2676   86.3142   10.8798 C.3     1  UNL1        0.2193
     20 C          61.3241   86.1509    9.3898 C.3     1  UNL1        0.0798
     21 C          62.6155   85.3992    9.5211 C.3     1  UNL1        0.0193
     22 N          61.3805   85.9876    7.8998 N.3     1  UNL1       -0.3203
     23 H          62.1840   85.4105    7.6512 H       1  UNL1        0.1189
     24 H          61.4711   86.9037    7.4605 H       1  UNL1        0.1189
     25 C          60.0326   86.9026    9.2585 C.3     1  UNL1        0.0179
     26 C          60.7611   89.3957    9.3192 C.3     1  UNL1        0.0000
     27 C          60.0216   88.2743    8.6517 C.3     1  UNL1        0.0014
     28 C          59.2711   88.5247    7.3773 C.3     1  UNL1        0.0000
@<TRIPOS>BOND
     1    26    27    1
     2    27    28    1
     3    27    25    1
     4    25    20    1
     5    20    21    1
     6    20    22    1
     7    20    19    1
     8    19    18    1
     9    18     1    1
    10     1     2   ar
    11     2     3   ar
    12     3     4   ar
    13     4     7    1
    14     7     8   ar
    15     8     9   ar
    16     9    10   ar
    17    10    11   ar
    18    11    13    1
    19    13    14    1
    20    13    15    1
    21    11    12   ar
    22     4     5   ar
    23     5     6   ar
    24     6    16    1
    25    16    17    3
    26     6     1   ar
    27    12     7   ar
    28    22    23    1
    29    22    24    1
