@<TRIPOS>MOLECULE
*****
 35 39 0 0 0
SMALL
GASTEIGER

@<TRIPOS>ATOM
      1 O          62.5420   89.6039   11.3520 O.2     1  UNL1       -0.2526
      2 C          63.6662   90.1696   12.1681 C.2     1  UNL1        0.3044
      3 N          64.3536   91.4818   11.9322 N.am    1  UNL1       -0.2833
      4 C          65.4126   91.6456   12.9817 C.3     1  UNL1        0.1144
      5 C          65.3798   90.4346   13.8663 C.3     1  UNL1        0.1212
      6 N          64.3004   89.5224   13.3634 N.am    1  UNL1       -0.2634
      7 H          64.1460   92.1229   11.2145 H       1  UNL1        0.1515
      8 C          66.5273   92.0816   13.8859 C.ar    1  UNL1       -0.0007
      9 C          66.2184   92.6196   15.2515 C.ar    1  UNL1       -0.0001
     10 C          67.3331   93.0556   16.1556 C.ar    1  UNL1        0.0294
     11 C          68.7566   92.9537   15.6940 C.ar    1  UNL1        0.1401
     12 F          69.8713   93.3897   16.5981 F       1  UNL1       -0.2042
     13 C          69.0655   92.4157   14.3283 C.ar    1  UNL1        0.0294
     14 C          67.9509   91.9797   13.4242 C.ar    1  UNL1       -0.0001
     15 C          65.6785   92.9477   12.2861 C.ar    1  UNL1       -0.0007
     16 C          65.5168   93.0499   10.7984 C.ar    1  UNL1       -0.0001
     17 C          65.7826   94.3521   10.1028 C.ar    1  UNL1        0.0294
     18 C          66.2102   95.5519   10.8950 C.ar    1  UNL1        0.1401
     19 F          66.4761   96.8540   10.1994 F       1  UNL1       -0.2042
     20 C          66.3720   95.4497   12.3827 C.ar    1  UNL1        0.0294
     21 C          66.1061   94.1475   13.0783 C.ar    1  UNL1       -0.0001
     22 C          63.9218   88.1959   13.9525 C.3     1  UNL1        0.0797
     23 C          63.5413   87.0571   13.0533 C.3     1  UNL1        0.0372
     24 C          63.1627   85.7306   13.6424 C.3     1  UNL1        0.0741
     25 N          63.1645   85.5428   15.1307 N.3     1  UNL1       -0.2689
     26 C          63.5449   86.6816   16.0298 C.3     1  UNL1        0.0741
     27 C          63.9236   88.0081   15.4407 C.3     1  UNL1        0.0372
     28 C          62.7858   84.2164   15.7197 C.3     1  UNL1        0.0992
     29 C          62.7437   82.9944   14.8507 C.ar    1  UNL1       -0.0053
     30 C          63.9411   82.6158   14.0305 C.ar    1  UNL1       -0.0029
     31 C          63.8989   81.3939   13.1615 C.ar    1  UNL1        0.0006
     32 C          62.6594   80.5505   13.1129 C.ar    1  UNL1        0.0114
     33 C          61.4620   80.9291   13.9332 C.ar    1  UNL1        0.0574
     34 CL         60.2225   80.0858   13.8845 Cl      1  UNL1       -0.0823
     35 C          61.5041   82.1511   14.8021 C.ar    1  UNL1        0.0085
@<TRIPOS>BOND
     1     1     2    2
     2     2     3   am
     3     3     4    1
     4     4     8    1
     5     8     9   ar
     6     9    10   ar
     7    10    11   ar
     8    11    12    1
     9    11    13   ar
    10    13    14   ar
    11     4    15    1
    12    15    16   ar
    13    16    17   ar
    14    17    18   ar
    15    18    19    1
    16    18    20   ar
    17    20    21   ar
    18     4     5    1
    19     5     6    1
    20     6    22    1
    21    22    23    1
    22    23    24    1
    23    24    25    1
    24    25    28    1
    25    28    29    1
    26    29    30   ar
    27    30    31   ar
    28    31    32   ar
    29    32    33   ar
    30    33    34    1
    31    33    35   ar
    32    25    26    1
    33    26    27    1
    34     6     2   am
    35    27    22    1
    36    14     8   ar
    37    21    15   ar
    38    35    29   ar
    39     3     7    1
@<TRIPOS>MOLECULE
*****
 35 39 0 0 0
SMALL
GASTEIGER

@<TRIPOS>ATOM
      1 O          62.5122   89.6158   11.3595 O.2     1  UNL1       -0.2526
      2 C          63.6415   90.1754   12.1729 C.2     1  UNL1        0.3044
      3 N          64.3324   91.4859   11.9379 N.am    1  UNL1       -0.2833
      4 C          65.3961   91.6432   12.9838 C.3     1  UNL1        0.1144
      5 C          65.3625   90.4299   13.8651 C.3     1  UNL1        0.1212
      6 N          64.2781   89.5228   13.3639 N.am    1  UNL1       -0.2634
      7 H          64.1243   92.1297   11.2227 H       1  UNL1        0.1515
      8 C          66.5157   92.0730   13.8848 C.ar    1  UNL1       -0.0007
      9 C          67.9365   91.9778   13.4134 C.ar    1  UNL1       -0.0001
     10 C          69.0560   92.4075   14.3144 C.ar    1  UNL1        0.0294
     11 C          68.7548   92.9325   15.6869 C.ar    1  UNL1        0.1401
     12 F          69.8744   93.3622   16.5879 F       1  UNL1       -0.2042
     13 C          67.3340   93.0276   16.1583 C.ar    1  UNL1        0.0294
     14 C          66.2145   92.5979   15.2573 C.ar    1  UNL1       -0.0001
     15 C          65.6637   92.9463   12.2908 C.ar    1  UNL1       -0.0007
     16 C          66.1253   94.1349   13.0808 C.ar    1  UNL1       -0.0001
     17 C          66.3929   95.4381   12.3878 C.ar    1  UNL1        0.0294
     18 C          66.1990   95.5526   10.9048 C.ar    1  UNL1        0.1401
     19 F          66.4667   96.8557   10.2120 F       1  UNL1       -0.2042
     20 C          65.7374   94.3641   10.1148 C.ar    1  UNL1        0.0294
     21 C          65.4697   93.0608   10.8078 C.ar    1  UNL1       -0.0001
     22 C          63.8972   88.1959   13.9508 C.3     1  UNL1        0.0797
     23 C          63.9020   88.0048   15.4386 C.3     1  UNL1        0.0372
     24 C          63.5211   86.6780   16.0255 C.3     1  UNL1        0.0741
     25 N          63.1354   85.5423   15.1247 N.3     1  UNL1       -0.2689
     26 C          63.1306   85.7335   13.6369 C.3     1  UNL1        0.0741
     27 C          63.5115   87.0603   13.0500 C.3     1  UNL1        0.0372
     28 C          62.7545   84.2155   15.7116 C.3     1  UNL1        0.0992
     29 C          62.7311   82.9911   14.8454 C.ar    1  UNL1       -0.0053
     30 C          63.9411   82.6181   14.0413 C.ar    1  UNL1       -0.0029
     31 C          63.9176   81.3936   13.1751 C.ar    1  UNL1        0.0006
     32 C          62.6841   80.5423   13.1132 C.ar    1  UNL1        0.0114
     33 C          61.4742   80.9153   13.9173 C.ar    1  UNL1        0.0574
     34 CL         60.2407   80.0640   13.8554 Cl      1  UNL1       -0.0823
     35 C          61.4976   82.1398   14.7835 C.ar    1  UNL1        0.0085
@<TRIPOS>BOND
     1     1     2    2
     2     2     3   am
     3     3     4    1
     4     4     8    1
     5     8     9   ar
     6     9    10   ar
     7    10    11   ar
     8    11    12    1
     9    11    13   ar
    10    13    14   ar
    11     4    15    1
    12    15    16   ar
    13    16    17   ar
    14    17    18   ar
    15    18    19    1
    16    18    20   ar
    17    20    21   ar
    18     4     5    1
    19     5     6    1
    20     6    22    1
    21    22    23    1
    22    23    24    1
    23    24    25    1
    24    25    28    1
    25    28    29    1
    26    29    30   ar
    27    30    31   ar
    28    31    32   ar
    29    32    33   ar
    30    33    34    1
    31    33    35   ar
    32    25    26    1
    33    26    27    1
    34     6     2   am
    35    27    22    1
    36    14     8   ar
    37    21    15   ar
    38    35    29   ar
    39     3     7    1
@<TRIPOS>MOLECULE
*****
 35 39 0 0 0
SMALL
GASTEIGER

@<TRIPOS>ATOM
      1 O          62.8694   88.7594   13.5927 O.2     1  UNL1       -0.2526
      2 C          63.6385   89.8746   12.9487 C.2     1  UNL1        0.3044
      3 N          64.7920   90.6160   13.5567 N.am    1  UNL1       -0.2833
      4 C          65.2556   91.6438   12.5674 C.3     1  UNL1        0.1144
      5 C          64.3885   91.5376   11.3480 C.3     1  UNL1        0.1212
      6 N          63.3891   90.4441   11.5837 N.am    1  UNL1       -0.2634
      7 H          65.1772   90.4562   14.4485 H       1  UNL1        0.1515
      8 C          65.9299   92.7419   11.7994 C.ar    1  UNL1       -0.0007
      9 C          65.8576   94.1563   12.2934 C.ar    1  UNL1       -0.0001
     10 C          66.5319   95.2543   11.5254 C.ar    1  UNL1        0.0294
     11 C          67.2785   94.9378   10.2635 C.ar    1  UNL1        0.1401
     12 F          67.9528   96.0358    9.4955 F       1  UNL1       -0.2042
     13 C          67.3508   93.5233    9.7696 C.ar    1  UNL1        0.0294
     14 C          66.6765   92.4254   10.5375 C.ar    1  UNL1       -0.0001
     15 C          66.2636   91.9796   13.6262 C.ar    1  UNL1       -0.0007
     16 C          67.7295   91.8841   13.3233 C.ar    1  UNL1       -0.0001
     17 C          68.7376   92.2199   14.3822 C.ar    1  UNL1        0.0294
     18 C          68.2797   92.6512   15.7439 C.ar    1  UNL1        0.1401
     19 F          69.2877   92.9870   16.8026 F       1  UNL1       -0.2042
     20 C          66.8137   92.7467   16.0468 C.ar    1  UNL1        0.0294
     21 C          65.8056   92.4109   14.9879 C.ar    1  UNL1       -0.0001
     22 C          62.3269   89.9985   10.6230 C.3     1  UNL1        0.0797
     23 C          62.5274   88.7561    9.8066 C.3     1  UNL1        0.0372
     24 C          61.4651   88.3105    8.8459 C.3     1  UNL1        0.0741
     25 N          60.2023   89.1071    8.7015 N.3     1  UNL1       -0.2689
     26 C          60.0018   90.3494    9.5179 C.3     1  UNL1        0.0741
     27 C          61.0641   90.7950   10.4786 C.3     1  UNL1        0.0372
     28 C          59.1401   88.6614    7.7408 C.3     1  UNL1        0.0992
     29 C          58.6344   89.6056    6.6907 C.ar    1  UNL1       -0.0053
     30 C          57.1637   89.6982    6.4111 C.ar    1  UNL1       -0.0029
     31 C          56.6580   90.6425    5.3610 C.ar    1  UNL1        0.0006
     32 C          57.6230   91.4941    4.5907 C.ar    1  UNL1        0.0114
     33 C          59.0938   91.4015    4.8703 C.ar    1  UNL1        0.0574
     34 CL         60.0588   92.2531    4.1000 Cl      1  UNL1       -0.0823
     35 C          59.5995   90.4572    5.9204 C.ar    1  UNL1        0.0085
@<TRIPOS>BOND
     1     1     2    2
     2     2     3   am
     3     3     4    1
     4     4     8    1
     5     8     9   ar
     6     9    10   ar
     7    10    11   ar
     8    11    12    1
     9    11    13   ar
    10    13    14   ar
    11     4    15    1
    12    15    16   ar
    13    16    17   ar
    14    17    18   ar
    15    18    19    1
    16    18    20   ar
    17    20    21   ar
    18     4     5    1
    19     5     6    1
    20     6    22    1
    21    22    23    1
    22    23    24    1
    23    24    25    1
    24    25    28    1
    25    28    29    1
    26    29    30   ar
    27    30    31   ar
    28    31    32   ar
    29    32    33   ar
    30    33    34    1
    31    33    35   ar
    32    25    26    1
    33    26    27    1
    34     6     2   am
    35    27    22    1
    36    14     8   ar
    37    21    15   ar
    38    35    29   ar
    39     3     7    1
@<TRIPOS>MOLECULE
*****
 35 39 0 0 0
SMALL
GASTEIGER

@<TRIPOS>ATOM
      1 O          64.1992   89.0739   15.1431 O.2     1  UNL1       -0.2526
      2 C          64.7426   90.1158   14.2109 C.2     1  UNL1        0.3044
      3 N          65.8760   91.0542   14.5018 N.am    1  UNL1       -0.2833
      4 C          66.0818   91.9206   13.2947 C.3     1  UNL1        0.1144
      5 C          65.0756   91.5177   12.2579 C.3     1  UNL1        0.1212
      6 N          64.2478   90.4023   12.8241 N.am    1  UNL1       -0.2634
      7 H          66.3939   91.0944   15.3380 H       1  UNL1        0.1515
      8 C          66.5171   92.9148   12.2592 C.ar    1  UNL1       -0.0007
      9 C          66.1745   94.3660   12.4220 C.ar    1  UNL1       -0.0001
     10 C          66.6097   95.3601   11.3865 C.ar    1  UNL1        0.0294
     11 C          67.3876   94.9030   10.1882 C.ar    1  UNL1        0.1401
     12 F          67.8229   95.8971    9.1527 F       1  UNL1       -0.2042
     13 C          67.7303   93.4517   10.0254 C.ar    1  UNL1        0.0294
     14 C          67.2950   92.4577   11.0609 C.ar    1  UNL1       -0.0001
     15 C          67.1791   92.5314   14.1151 C.ar    1  UNL1       -0.0007
     16 C          68.6055   92.1352   13.8734 C.ar    1  UNL1       -0.0001
     17 C          69.7029   92.7460   14.6938 C.ar    1  UNL1        0.0294
     18 C          69.3737   93.7529   15.7558 C.ar    1  UNL1        0.1401
     19 F          70.4710   94.3636   16.5761 F       1  UNL1       -0.2042
     20 C          67.9473   94.1490   15.9975 C.ar    1  UNL1        0.0294
     21 C          66.8500   93.5383   15.1771 C.ar    1  UNL1       -0.0001
     22 C          63.1229   89.6971   12.1261 C.3     1  UNL1        0.0797
     23 C          63.0711   88.1980   12.1124 C.3     1  UNL1        0.0372
     24 C          61.9462   87.4928   11.4144 C.3     1  UNL1        0.0741
     25 N          60.8730   88.2866   10.7300 N.3     1  UNL1       -0.2689
     26 C          60.9248   89.7857   10.7438 C.3     1  UNL1        0.0741
     27 C          62.0498   90.4909   11.4418 C.3     1  UNL1        0.0372
     28 C          59.7481   87.5814   10.0321 C.3     1  UNL1        0.0992
     29 C          60.0307   86.7136    8.8417 C.ar    1  UNL1       -0.0053
     30 C          58.9618   86.4754    7.8167 C.ar    1  UNL1       -0.0029
     31 C          59.2443   85.6076    6.6263 C.ar    1  UNL1        0.0006
     32 C          60.5957   84.9780    6.4609 C.ar    1  UNL1        0.0114
     33 C          61.6646   85.2162    7.4859 C.ar    1  UNL1        0.0574
     34 CL         63.0160   84.5866    7.3206 Cl      1  UNL1       -0.0823
     35 C          61.3820   86.0840    8.6763 C.ar    1  UNL1        0.0085
@<TRIPOS>BOND
     1     1     2    2
     2     2     3   am
     3     3     4    1
     4     4     8    1
     5     8     9   ar
     6     9    10   ar
     7    10    11   ar
     8    11    12    1
     9    11    13   ar
    10    13    14   ar
    11     4    15    1
    12    15    16   ar
    13    16    17   ar
    14    17    18   ar
    15    18    19    1
    16    18    20   ar
    17    20    21   ar
    18     4     5    1
    19     5     6    1
    20     6    22    1
    21    22    23    1
    22    23    24    1
    23    24    25    1
    24    25    28    1
    25    28    29    1
    26    29    30   ar
    27    30    31   ar
    28    31    32   ar
    29    32    33   ar
    30    33    34    1
    31    33    35   ar
    32    25    26    1
    33    26    27    1
    34     6     2   am
    35    27    22    1
    36    14     8   ar
    37    21    15   ar
    38    35    29   ar
    39     3     7    1
@<TRIPOS>MOLECULE
*****
 35 39 0 0 0
SMALL
GASTEIGER

@<TRIPOS>ATOM
      1 O          56.9223   91.3962    5.4524 O.2     1  UNL1       -0.2526
      2 C          58.2704   91.5722    4.8187 C.2     1  UNL1        0.3044
      3 N          58.5811   92.4364    3.6328 N.am    1  UNL1       -0.2833
      4 C          60.0472   92.3132    3.3408 C.3     1  UNL1        0.1144
      5 C          60.6426   91.3727    4.3463 C.3     1  UNL1        0.1212
      6 N          59.5444   90.9148    5.2598 N.am    1  UNL1       -0.2634
      7 H          57.9360   92.9878    3.1337 H       1  UNL1        0.1515
      8 C          61.4502   92.3899    2.8157 C.ar    1  UNL1       -0.0007
      9 C          61.8255   93.4586    1.8324 C.ar    1  UNL1       -0.0001
     10 C          63.2285   93.5353    1.3072 C.ar    1  UNL1        0.0294
     11 C          64.2561   92.5433    1.7654 C.ar    1  UNL1        0.1401
     12 F          65.6591   92.6200    1.2402 F       1  UNL1       -0.2042
     13 C          63.8808   91.4746    2.7487 C.ar    1  UNL1        0.0294
     14 C          62.4778   91.3979    3.2738 C.ar    1  UNL1       -0.0001
     15 C          59.7451   93.2697    2.2255 C.ar    1  UNL1       -0.0007
     16 C          59.1678   92.7617    0.9377 C.ar    1  UNL1       -0.0001
     17 C          58.8656   93.7182   -0.1777 C.ar    1  UNL1        0.0294
     18 C          59.1409   95.1826   -0.0051 C.ar    1  UNL1        0.1401
     19 F          58.8388   96.1390   -1.1204 F       1  UNL1       -0.2042
     20 C          59.7182   95.6906    1.2828 C.ar    1  UNL1        0.0294
     21 C          60.0203   94.7341    2.3981 C.ar    1  UNL1       -0.0001
     22 C          59.6941   89.9660    6.4119 C.3     1  UNL1        0.0797
     23 C          60.3550   90.4228    7.6786 C.3     1  UNL1        0.0372
     24 C          60.5047   89.4740    8.8307 C.3     1  UNL1        0.0741
     25 N          59.9935   88.0684    8.7162 N.3     1  UNL1       -0.2689
     26 C          59.3326   87.6117    7.4494 C.3     1  UNL1        0.0741
     27 C          59.1830   88.5604    6.2973 C.3     1  UNL1        0.0372
     28 C          60.1432   87.1197    9.8683 C.3     1  UNL1        0.0992
     29 C          61.2907   86.1542    9.9007 C.ar    1  UNL1       -0.0053
     30 C          62.0714   85.8751    8.6507 C.ar    1  UNL1       -0.0029
     31 C          63.2190   84.9096    8.6831 C.ar    1  UNL1        0.0006
     32 C          63.5858   84.2234    9.9655 C.ar    1  UNL1        0.0114
     33 C          62.8051   84.5025   11.2155 C.ar    1  UNL1        0.0574
     34 CL         63.1718   83.8163   12.4979 Cl      1  UNL1       -0.0823
     35 C          61.6575   85.4680   11.1831 C.ar    1  UNL1        0.0085
@<TRIPOS>BOND
     1     1     2    2
     2     2     3   am
     3     3     4    1
     4     4     8    1
     5     8     9   ar
     6     9    10   ar
     7    10    11   ar
     8    11    12    1
     9    11    13   ar
    10    13    14   ar
    11     4    15    1
    12    15    16   ar
    13    16    17   ar
    14    17    18   ar
    15    18    19    1
    16    18    20   ar
    17    20    21   ar
    18     4     5    1
    19     5     6    1
    20     6    22    1
    21    22    23    1
    22    23    24    1
    23    24    25    1
    24    25    28    1
    25    28    29    1
    26    29    30   ar
    27    30    31   ar
    28    31    32   ar
    29    32    33   ar
    30    33    34    1
    31    33    35   ar
    32    25    26    1
    33    26    27    1
    34     6     2   am
    35    27    22    1
    36    14     8   ar
    37    21    15   ar
    38    35    29   ar
    39     3     7    1
@<TRIPOS>MOLECULE
*****
 35 39 0 0 0
SMALL
GASTEIGER

@<TRIPOS>ATOM
      1 O          64.2360   92.3533   10.1184 O.2     1  UNL1       -0.2526
      2 C          64.0474   91.4999   11.3374 C.2     1  UNL1        0.3044
      3 N          64.8408   91.5889   12.6073 N.am    1  UNL1       -0.2833
      4 C          64.3161   90.5517   13.5553 C.3     1  UNL1        0.1144
      5 C          63.1984   89.8217   12.8714 C.3     1  UNL1        0.1212
      6 N          63.0323   90.4077   11.5006 N.am    1  UNL1       -0.2634
      7 H          65.5767   92.2177   12.7870 H       1  UNL1        0.1515
      8 C          64.0117   89.6266   14.6963 C.ar    1  UNL1       -0.0007
      9 C          64.3889   88.1775   14.6080 C.ar    1  UNL1       -0.0001
     10 C          64.0845   87.2526   15.7490 C.ar    1  UNL1        0.0294
     11 C          63.4030   87.7767   16.9781 C.ar    1  UNL1        0.1401
     12 F          63.0987   86.8516   18.1191 F       1  UNL1       -0.2042
     13 C          63.0259   89.2258   17.0664 C.ar    1  UNL1        0.0294
     14 C          63.3302   90.1508   15.9255 C.ar    1  UNL1       -0.0001
     15 C          65.3701   91.0883   14.4778 C.ar    1  UNL1       -0.0007
     16 C          66.8149   90.7685   14.2325 C.ar    1  UNL1       -0.0001
     17 C          67.8691   91.3051   15.1550 C.ar    1  UNL1        0.0294
     18 C          67.4783   92.1616   16.3228 C.ar    1  UNL1        0.1401
     19 F          68.5324   92.6982   17.2452 F       1  UNL1       -0.2042
     20 C          66.0335   92.4815   16.5681 C.ar    1  UNL1        0.0294
     21 C          64.9794   91.9449   15.6456 C.ar    1  UNL1       -0.0001
     22 C          62.0276   89.9771   10.4734 C.3     1  UNL1        0.0797
     23 C          62.2801   88.7526    9.6446 C.3     1  UNL1        0.0372
     24 C          61.2754   88.3220    8.6174 C.3     1  UNL1        0.0741
     25 N          60.0182   89.1159    8.4190 N.3     1  UNL1       -0.2689
     26 C          59.7658   90.3404    9.2478 C.3     1  UNL1        0.0741
     27 C          60.7705   90.7709   10.2750 C.3     1  UNL1        0.0372
     28 C          59.0136   88.6852    7.3918 C.3     1  UNL1        0.0992
     29 C          58.4571   89.6849    6.4217 C.ar    1  UNL1       -0.0053
     30 C          56.9743   89.7900    6.2211 C.ar    1  UNL1       -0.0029
     31 C          56.4178   90.7896    5.2510 C.ar    1  UNL1        0.0006
     32 C          57.3440   91.6840    4.4816 C.ar    1  UNL1        0.0114
     33 C          58.8268   91.5789    4.6822 C.ar    1  UNL1        0.0574
     34 CL         59.7531   92.4734    3.9128 Cl      1  UNL1       -0.0823
     35 C          59.3833   90.5793    5.6523 C.ar    1  UNL1        0.0085
@<TRIPOS>BOND
     1     1     2    2
     2     2     3   am
     3     3     4    1
     4     4     8    1
     5     8     9   ar
     6     9    10   ar
     7    10    11   ar
     8    11    12    1
     9    11    13   ar
    10    13    14   ar
    11     4    15    1
    12    15    16   ar
    13    16    17   ar
    14    17    18   ar
    15    18    19    1
    16    18    20   ar
    17    20    21   ar
    18     4     5    1
    19     5     6    1
    20     6    22    1
    21    22    23    1
    22    23    24    1
    23    24    25    1
    24    25    28    1
    25    28    29    1
    26    29    30   ar
    27    30    31   ar
    28    31    32   ar
    29    32    33   ar
    30    33    34    1
    31    33    35   ar
    32    25    26    1
    33    26    27    1
    34     6     2   am
    35    27    22    1
    36    14     8   ar
    37    21    15   ar
    38    35    29   ar
    39     3     7    1
