@<TRIPOS>MOLECULE
*****
 34 38 0 0 0
SMALL
GASTEIGER

@<TRIPOS>ATOM
      1 C          62.7329   89.9421   12.5763 C.ar    1  UNL1        0.2396
      2 N          62.7437   88.4461   12.4671 N.ar    1  UNL1       -0.1932
      3 C          62.0408   88.0691   11.1967 C.ar    1  UNL1        0.1667
      4 C          61.7486   86.7389   10.5680 C.ar    1  UNL1        0.0360
      5 C          61.0112   86.6717    9.2635 C.ar    1  UNL1        0.0046
      6 C          60.5661   87.9346    8.5877 C.ar    1  UNL1        0.0208
      7 C          60.8583   89.2648    9.2163 C.ar    1  UNL1        0.1022
      8 N          61.5956   89.3320   10.5208 N.ar    1  UNL1       -0.2081
      9 N          62.0234   90.4896   11.3735 N.ar    1  UNL1       -0.1281
     10 C          62.1937   85.4759   11.2439 C.ar    1  UNL1        0.0030
     11 C          62.0572   85.3328   12.7308 C.ar    1  UNL1        0.0014
     12 C          62.5024   84.0698   13.4067 C.ar    1  UNL1        0.0183
     13 C          63.0841   82.9500   12.5957 C.ar    1  UNL1        0.1057
     14 C          63.2206   83.0933   11.1087 C.ar    1  UNL1        0.0183
     15 C          62.7754   84.3562   10.4329 C.ar    1  UNL1        0.0014
     16 S          63.5292   81.6871   13.2715 S.O2    1  UNL1        0.0104
     17 C          63.9744   80.4242   13.9474 C.3     1  UNL1        0.1816
     18 O          63.9011   82.4725   14.4942 O.2     1  UNL1       -0.1686
     19 O          63.1574   80.9018   12.0489 O.2     1  UNL1       -0.1686
     20 N          63.3274   90.7490   13.6925 N.pl3   1  UNL1       -0.2813
     21 H          62.8186   90.8893   14.5235 H       1  UNL1        0.1551
     22 C          66.3414   92.9191   12.2939 C.ar    1  UNL1       -0.0212
     23 C          67.4361   92.5281   13.2420 C.ar    1  UNL1       -0.0042
     24 C          67.1612   91.5441   14.3403 C.ar    1  UNL1        0.0009
     25 C          65.7915   90.9511   14.4904 C.ar    1  UNL1        0.0147
     26 C          64.6969   91.3420   13.5423 C.ar    1  UNL1        0.0502
     27 C          64.9718   92.3260   12.4441 C.ar    1  UNL1        0.0104
     28 C          67.4411   96.8551    7.9009 C.3     1  UNL1        0.0896
     29 N          67.1662   95.8711    8.9992 N.3     1  UNL1       -0.2715
     30 C          66.4975   96.3250   10.2628 C.3     1  UNL1        0.0725
     31 C          66.2225   95.3410   11.3610 C.3     1  UNL1        0.0217
     32 C          66.6163   93.9031   11.1957 C.3     1  UNL1        0.0251
     33 C          67.2851   93.4491    9.9320 C.3     1  UNL1        0.0217
     34 C          67.5600   94.4331    8.8337 C.3     1  UNL1        0.0725
@<TRIPOS>BOND
     1    28    29    1
     2    29    30    1
     3    30    31    1
     4    31    32    1
     5    32    22    1
     6    22    23   ar
     7    23    24   ar
     8    24    25   ar
     9    25    26   ar
    10    26    20    1
    11    20     1    1
    12     1     2   ar
    13     2     3   ar
    14     3     4   ar
    15     4    10    1
    16    10    11   ar
    17    11    12   ar
    18    12    13   ar
    19    13    16    1
    20    16    17    1
    21    16    18    2
    22    16    19    2
    23    13    14   ar
    24    14    15   ar
    25     4     5   ar
    26     5     6   ar
    27     6     7   ar
    28     7     8   ar
    29     8     9   ar
    30    26    27   ar
    31    32    33    1
    32    33    34    1
    33    34    29    1
    34    27    22   ar
    35     9     1   ar
    36     8     3   ar
    37    15    10   ar
    38    20    21    1
@<TRIPOS>MOLECULE
*****
 34 38 0 0 0
SMALL
GASTEIGER

@<TRIPOS>ATOM
      1 C          64.3142   84.8755   14.4730 C.ar    1  UNL1        0.2396
      2 N          64.3908   86.3450   14.1819 N.ar    1  UNL1       -0.1932
      3 C          63.8563   87.0822   15.3740 C.ar    1  UNL1        0.1667
      4 C          63.6875   88.5456   15.6563 C.ar    1  UNL1        0.0360
      5 C          63.1119   88.9953   16.9664 C.ar    1  UNL1        0.0046
      6 C          62.7051   87.9814   17.9942 C.ar    1  UNL1        0.0208
      7 C          62.8738   86.5179   17.7119 C.ar    1  UNL1        0.1022
      8 N          63.4494   86.0683   16.4018 N.ar    1  UNL1       -0.2081
      9 N          63.7324   84.7045   15.8450 N.ar    1  UNL1       -0.1281
     10 C          64.0944   89.5596   14.6284 C.ar    1  UNL1        0.0030
     11 C          63.3441   89.6572   13.3332 C.ar    1  UNL1        0.0014
     12 C          63.7510   90.6711   12.3053 C.ar    1  UNL1        0.0183
     13 C          64.9081   91.5873   12.5726 C.ar    1  UNL1        0.1057
     14 C          65.6584   91.4897   13.8679 C.ar    1  UNL1        0.0183
     15 C          65.2515   90.4758   14.8957 C.ar    1  UNL1        0.0014
     16 S          65.3150   92.6012   11.5448 S.O2    1  UNL1        0.0104
     17 C          65.7219   93.6151   10.5170 C.3     1  UNL1        0.1816
     18 O          66.2807   93.2039   12.5216 O.2     1  UNL1       -0.1686
     19 O          64.3493   91.9985   10.5680 O.2     1  UNL1       -0.1686
     20 N          64.7440   83.7710   13.5536 N.pl3   1  UNL1       -0.2813
     21 H          65.3462   83.0643   13.8810 H       1  UNL1        0.1551
     22 C          62.9294   84.8415   10.1904 C.ar    1  UNL1       -0.0212
     23 C          63.2808   83.6875    9.2989 C.ar    1  UNL1       -0.0042
     24 C          64.1200   82.5613    9.8257 C.ar    1  UNL1        0.0009
     25 C          64.6077   82.5891   11.2440 C.ar    1  UNL1        0.0147
     26 C          64.2563   83.7431   12.1354 C.ar    1  UNL1        0.0502
     27 C          63.4171   84.8693   11.6086 C.ar    1  UNL1        0.0104
     28 C          59.5726   89.3462    8.0834 C.3     1  UNL1        0.0896
     29 N          60.4118   88.2200    8.6102 N.3     1  UNL1       -0.2715
     30 C          60.3066   86.8555    7.9962 C.3     1  UNL1        0.0725
     31 C          61.1458   85.7294    8.5230 C.3     1  UNL1        0.0217
     32 C          62.0902   85.9677    9.6637 C.3     1  UNL1        0.0251
     33 C          62.1954   87.3323   10.2777 C.3     1  UNL1        0.0217
     34 C          61.3562   88.4584    9.7510 C.3     1  UNL1        0.0725
@<TRIPOS>BOND
     1    28    29    1
     2    29    30    1
     3    30    31    1
     4    31    32    1
     5    32    22    1
     6    22    23   ar
     7    23    24   ar
     8    24    25   ar
     9    25    26   ar
    10    26    20    1
    11    20     1    1
    12     1     2   ar
    13     2     3   ar
    14     3     4   ar
    15     4    10    1
    16    10    11   ar
    17    11    12   ar
    18    12    13   ar
    19    13    16    1
    20    16    17    1
    21    16    18    2
    22    16    19    2
    23    13    14   ar
    24    14    15   ar
    25     4     5   ar
    26     5     6   ar
    27     6     7   ar
    28     7     8   ar
    29     8     9   ar
    30    26    27   ar
    31    32    33    1
    32    33    34    1
    33    34    29    1
    34    27    22   ar
    35     9     1   ar
    36     8     3   ar
    37    15    10   ar
    38    20    21    1
@<TRIPOS>MOLECULE
*****
 34 38 0 0 0
SMALL
GASTEIGER

@<TRIPOS>ATOM
      1 C          64.2754   85.0211   14.7087 C.ar    1  UNL1        0.2396
      2 N          63.5539   85.3909   13.4467 N.ar    1  UNL1       -0.1932
      3 C          63.5060   84.1765   12.5674 C.ar    1  UNL1        0.1667
      4 C          62.9217   83.9462   11.2052 C.ar    1  UNL1        0.0360
      5 C          63.0294   82.5957   10.5615 C.ar    1  UNL1        0.0046
      6 C          63.7214   81.4755   11.2800 C.ar    1  UNL1        0.0208
      7 C          64.3056   81.7058   12.6422 C.ar    1  UNL1        0.1022
      8 N          64.1980   83.0563   13.2859 N.ar    1  UNL1       -0.2081
      9 N          64.6735   83.5783   14.6093 N.ar    1  UNL1       -0.1281
     10 C          62.2298   85.0665   10.4867 C.ar    1  UNL1        0.0030
     11 C          61.3799   86.0368   11.2523 C.ar    1  UNL1        0.0014
     12 C          60.6879   87.1571   10.5338 C.ar    1  UNL1        0.0183
     13 C          60.8458   87.3070    9.0496 C.ar    1  UNL1        0.1057
     14 C          61.6957   86.3366    8.2840 C.ar    1  UNL1        0.0183
     15 C          62.3877   85.2164    9.0025 C.ar    1  UNL1        0.0014
     16 S          60.1539   88.4272    8.3311 S.O2    1  UNL1        0.0104
     17 C          59.4620   89.5475    7.6126 C.3     1  UNL1        0.1816
     18 O          59.3802   87.4297    7.5210 O.2     1  UNL1       -0.1686
     19 O          60.9276   89.4247    9.1412 O.2     1  UNL1       -0.1686
     20 N          64.5506   85.9338   15.8669 N.pl3   1  UNL1       -0.2813
     21 H          65.0429   85.5994   16.6511 H       1  UNL1        0.1551
     22 C          64.0665   89.6968   14.7026 C.ar    1  UNL1       -0.0212
     23 C          63.1258   90.2009   15.7567 C.ar    1  UNL1       -0.0042
     24 C          62.6601   89.2826   16.8476 C.ar    1  UNL1        0.0009
     25 C          63.1351   87.8602   16.8842 C.ar    1  UNL1        0.0147
     26 C          64.0757   87.3562   15.8301 C.ar    1  UNL1        0.0502
     27 C          64.5414   88.2745   14.7393 C.ar    1  UNL1        0.0104
     28 C          65.9293   93.3700   10.3394 C.3     1  UNL1        0.0896
     29 N          65.4636   92.4517   11.4302 N.3     1  UNL1       -0.2715
     30 C          64.2266   91.6254   11.2378 C.3     1  UNL1        0.0725
     31 C          63.7609   90.7071   12.3286 C.3     1  UNL1        0.0217
     32 C          64.5322   90.6151   13.6118 C.3     1  UNL1        0.0251
     33 C          65.7693   91.4414   13.8042 C.3     1  UNL1        0.0217
     34 C          66.2350   92.3597   12.7134 C.3     1  UNL1        0.0725
@<TRIPOS>BOND
     1    28    29    1
     2    29    30    1
     3    30    31    1
     4    31    32    1
     5    32    22    1
     6    22    23   ar
     7    23    24   ar
     8    24    25   ar
     9    25    26   ar
    10    26    20    1
    11    20     1    1
    12     1     2   ar
    13     2     3   ar
    14     3     4   ar
    15     4    10    1
    16    10    11   ar
    17    11    12   ar
    18    12    13   ar
    19    13    16    1
    20    16    17    1
    21    16    18    2
    22    16    19    2
    23    13    14   ar
    24    14    15   ar
    25     4     5   ar
    26     5     6   ar
    27     6     7   ar
    28     7     8   ar
    29     8     9   ar
    30    26    27   ar
    31    32    33    1
    32    33    34    1
    33    34    29    1
    34    27    22   ar
    35     9     1   ar
    36     8     3   ar
    37    15    10   ar
    38    20    21    1
@<TRIPOS>MOLECULE
*****
 34 38 0 0 0
SMALL
GASTEIGER

@<TRIPOS>ATOM
      1 C          62.4825   85.4630    8.9002 C.ar    1  UNL1        0.2396
      2 N          62.7607   86.7611    9.5984 N.ar    1  UNL1       -0.1932
      3 C          61.6934   87.7382    9.2028 C.ar    1  UNL1        0.1667
      4 C          61.4544   89.1704    9.5792 C.ar    1  UNL1        0.0360
      5 C          60.2777   89.9083    9.0129 C.ar    1  UNL1        0.0046
      6 C          59.3399   89.2140    8.0703 C.ar    1  UNL1        0.0208
      7 C          59.5789   87.7818    7.6939 C.ar    1  UNL1        0.1022
      8 N          60.7557   87.0439    8.2602 N.ar    1  UNL1       -0.2081
      9 N          61.2433   85.6378    8.0732 N.ar    1  UNL1       -0.1281
     10 C          62.3923   89.8646   10.5218 C.ar    1  UNL1        0.0030
     11 C          63.1508   91.0766   10.0681 C.ar    1  UNL1        0.0014
     12 C          64.0886   91.7708   11.0108 C.ar    1  UNL1        0.0183
     13 C          64.2679   91.2531   12.4071 C.ar    1  UNL1        0.1057
     14 C          63.5093   90.0411   12.8608 C.ar    1  UNL1        0.0183
     15 C          62.5716   89.3469   11.9182 C.ar    1  UNL1        0.0014
     16 S          65.2057   91.9473   13.3498 S.O2    1  UNL1        0.0104
     17 C          66.1434   92.6415   14.2924 C.3     1  UNL1        0.1816
     18 O          66.0745   92.3440   12.1933 O.2     1  UNL1       -0.1686
     19 O          64.3368   91.5506   14.5063 O.2     1  UNL1       -0.1686
     20 N          63.2999   84.2100    9.0098 N.pl3   1  UNL1       -0.2813
     21 H          63.6693   83.7908    8.1992 H       1  UNL1        0.1551
     22 C          63.6121   83.7942   12.9442 C.ar    1  UNL1       -0.0212
     23 C          64.0632   82.3670   13.0435 C.ar    1  UNL1       -0.0042
     24 C          64.2598   81.5542   11.7982 C.ar    1  UNL1        0.0009
     25 C          64.0054   82.1686   10.4536 C.ar    1  UNL1        0.0147
     26 C          63.5543   83.5957   10.3543 C.ar    1  UNL1        0.0502
     27 C          63.3576   84.4085   11.5996 C.ar    1  UNL1        0.0104
     28 C          62.8254   87.0454   17.9252 C.3     1  UNL1        0.0896
     29 N          63.0221   86.2326   16.6800 N.3     1  UNL1       -0.2715
     30 C          64.0344   86.6586   15.6584 C.3     1  UNL1        0.0725
     31 C          64.2311   85.8458   14.4131 C.3     1  UNL1        0.0217
     32 C          63.4154   84.6070   14.1894 C.3     1  UNL1        0.0251
     33 C          62.4030   84.1809   15.2111 C.3     1  UNL1        0.0217
     34 C          62.2064   84.9937   16.4563 C.3     1  UNL1        0.0725
@<TRIPOS>BOND
     1    28    29    1
     2    29    30    1
     3    30    31    1
     4    31    32    1
     5    32    22    1
     6    22    23   ar
     7    23    24   ar
     8    24    25   ar
     9    25    26   ar
    10    26    20    1
    11    20     1    1
    12     1     2   ar
    13     2     3   ar
    14     3     4   ar
    15     4    10    1
    16    10    11   ar
    17    11    12   ar
    18    12    13   ar
    19    13    16    1
    20    16    17    1
    21    16    18    2
    22    16    19    2
    23    13    14   ar
    24    14    15   ar
    25     4     5   ar
    26     5     6   ar
    27     6     7   ar
    28     7     8   ar
    29     8     9   ar
    30    26    27   ar
    31    32    33    1
    32    33    34    1
    33    34    29    1
    34    27    22   ar
    35     9     1   ar
    36     8     3   ar
    37    15    10   ar
    38    20    21    1
@<TRIPOS>MOLECULE
*****
 34 38 0 0 0
SMALL
GASTEIGER

@<TRIPOS>ATOM
      1 C          62.3443   90.4511    9.8633 C.ar    1  UNL1        0.2396
      2 N          62.4804   88.9938   10.1915 N.ar    1  UNL1       -0.1932
      3 C          61.4232   88.2472    9.4332 C.ar    1  UNL1        0.1667
      4 C          61.0775   86.7891    9.3654 C.ar    1  UNL1        0.0360
      5 C          59.9423   86.3269    8.5008 C.ar    1  UNL1        0.0046
      6 C          59.1528   87.3228    7.7039 C.ar    1  UNL1        0.0208
      7 C          59.4985   88.7808    7.7717 C.ar    1  UNL1        0.1022
      8 N          60.6337   89.2430    8.6364 N.ar    1  UNL1       -0.2081
      9 N          61.2030   90.6051    8.9022 N.ar    1  UNL1       -0.1281
     10 C          61.8670   85.7933   10.1623 C.ar    1  UNL1        0.0030
     11 C          61.7039   85.7262   11.6519 C.ar    1  UNL1        0.0014
     12 C          62.4934   84.7303   12.4488 C.ar    1  UNL1        0.0183
     13 C          63.4461   83.8016   11.7560 C.ar    1  UNL1        0.1057
     14 C          63.6092   83.8687   10.2664 C.ar    1  UNL1        0.0183
     15 C          62.8197   84.8645    9.4695 C.ar    1  UNL1        0.0014
     16 S          64.2356   82.8058   12.5528 S.O2    1  UNL1        0.0104
     17 C          65.0251   81.8100   13.3496 C.3     1  UNL1        0.1816
     18 O          63.6699   83.3722   13.8213 O.2     1  UNL1       -0.1686
     19 O          64.8013   82.2393   11.2843 O.2     1  UNL1       -0.1686
     20 N          63.1993   91.5598   10.4016 N.pl3   1  UNL1       -0.2813
     21 H          63.2351   92.4253    9.9339 H       1  UNL1        0.1551
     22 C          64.3965   90.0777   13.8830 C.ar    1  UNL1       -0.0212
     23 C          65.6009   90.9296   14.1546 C.ar    1  UNL1       -0.0042
     24 C          66.0048   91.9915   13.1753 C.ar    1  UNL1        0.0009
     25 C          65.2042   92.2016   11.9242 C.ar    1  UNL1        0.0147
     26 C          63.9998   91.3497   11.6526 C.ar    1  UNL1        0.0502
     27 C          63.5960   90.2878   12.6320 C.ar    1  UNL1        0.0104
     28 C          62.7811   85.8299   17.8005 C.3     1  UNL1        0.0896
     29 N          63.1849   86.8919   16.8211 N.3     1  UNL1       -0.2715
     30 C          63.8874   86.5129   15.5512 C.3     1  UNL1        0.0725
     31 C          64.2912   87.5748   14.5718 C.3     1  UNL1        0.0217
     32 C          63.9926   89.0158   14.8624 C.3     1  UNL1        0.0251
     33 C          63.2902   89.3948   16.1324 C.3     1  UNL1        0.0217
     34 C          62.8863   88.3329   17.1118 C.3     1  UNL1        0.0725
@<TRIPOS>BOND
     1    28    29    1
     2    29    30    1
     3    30    31    1
     4    31    32    1
     5    32    22    1
     6    22    23   ar
     7    23    24   ar
     8    24    25   ar
     9    25    26   ar
    10    26    20    1
    11    20     1    1
    12     1     2   ar
    13     2     3   ar
    14     3     4   ar
    15     4    10    1
    16    10    11   ar
    17    11    12   ar
    18    12    13   ar
    19    13    16    1
    20    16    17    1
    21    16    18    2
    22    16    19    2
    23    13    14   ar
    24    14    15   ar
    25     4     5   ar
    26     5     6   ar
    27     6     7   ar
    28     7     8   ar
    29     8     9   ar
    30    26    27   ar
    31    32    33    1
    32    33    34    1
    33    34    29    1
    34    27    22   ar
    35     9     1   ar
    36     8     3   ar
    37    15    10   ar
    38    20    21    1
@<TRIPOS>MOLECULE
*****
 34 38 0 0 0
SMALL
GASTEIGER

@<TRIPOS>ATOM
      1 C          62.1942   90.8024   10.1177 C.ar    1  UNL1        0.2396
      2 N          62.5516   90.2767   11.4763 N.ar    1  UNL1       -0.1932
      3 C          63.7911   90.9854   11.9362 C.ar    1  UNL1        0.1667
      4 C          64.6004   90.8777   13.1945 C.ar    1  UNL1        0.0360
      5 C          65.8184   91.7336   13.3785 C.ar    1  UNL1        0.0046
      6 C          66.2271   92.6973   12.3041 C.ar    1  UNL1        0.0208
      7 C          65.4177   92.8050   11.0458 C.ar    1  UNL1        0.1022
      8 N          64.1998   91.9490   10.8618 N.ar    1  UNL1       -0.2081
      9 N          63.2129   91.8359    9.7379 N.ar    1  UNL1       -0.1281
     10 C          64.1917   89.9140   14.2690 C.ar    1  UNL1        0.0030
     11 C          63.5548   90.4212   15.5287 C.ar    1  UNL1        0.0014
     12 C          63.1461   89.4575   16.6031 C.ar    1  UNL1        0.0183
     13 C          63.3744   87.9866   16.4177 C.ar    1  UNL1        0.1057
     14 C          64.0114   87.4794   15.1579 C.ar    1  UNL1        0.0183
     15 C          64.4200   88.4431   14.0836 C.ar    1  UNL1        0.0014
     16 S          62.9657   87.0229   17.4921 S.O2    1  UNL1        0.0104
     17 C          62.5570   86.0592   18.5664 C.3     1  UNL1        0.1816
     18 O          63.0774   88.1150   18.5142 O.2     1  UNL1       -0.1686
     19 O          62.8540   85.9308   16.4700 O.2     1  UNL1       -0.1686
     20 N          61.0237   90.3704    9.2849 N.pl3   1  UNL1       -0.2813
     21 H          60.3998   91.0423    8.9266 H       1  UNL1        0.1551
     22 C          61.4045   86.4224    9.4206 C.ar    1  UNL1       -0.0212
     23 C          60.3641   86.0029    8.4247 C.ar    1  UNL1       -0.0042
     24 C          59.5437   87.0392    7.7156 C.ar    1  UNL1        0.0009
     25 C          59.7636   88.4951    8.0023 C.ar    1  UNL1        0.0147
     26 C          60.8039   88.9146    8.9982 C.ar    1  UNL1        0.0502
     27 C          61.6243   87.8782    9.7073 C.ar    1  UNL1        0.0104
     28 C          64.6862   82.2770   12.2571 C.3     1  UNL1        0.0896
     29 N          63.8658   83.3134   11.5480 N.3     1  UNL1       -0.2715
     30 C          62.9742   84.2298   12.3323 C.3     1  UNL1        0.0725
     31 C          62.1538   85.2661   11.6232 C.3     1  UNL1        0.0217
     32 C          62.2249   85.3861   10.1297 C.3     1  UNL1        0.0251
     33 C          63.1165   84.4696    9.3453 C.3     1  UNL1        0.0217
     34 C          63.9369   83.4333   10.0544 C.3     1  UNL1        0.0725
@<TRIPOS>BOND
     1    28    29    1
     2    29    30    1
     3    30    31    1
     4    31    32    1
     5    32    22    1
     6    22    23   ar
     7    23    24   ar
     8    24    25   ar
     9    25    26   ar
    10    26    20    1
    11    20     1    1
    12     1     2   ar
    13     2     3   ar
    14     3     4   ar
    15     4    10    1
    16    10    11   ar
    17    11    12   ar
    18    12    13   ar
    19    13    16    1
    20    16    17    1
    21    16    18    2
    22    16    19    2
    23    13    14   ar
    24    14    15   ar
    25     4     5   ar
    26     5     6   ar
    27     6     7   ar
    28     7     8   ar
    29     8     9   ar
    30    26    27   ar
    31    32    33    1
    32    33    34    1
    33    34    29    1
    34    27    22   ar
    35     9     1   ar
    36     8     3   ar
    37    15    10   ar
    38    20    21    1
@<TRIPOS>MOLECULE
*****
 34 38 0 0 0
SMALL
GASTEIGER

@<TRIPOS>ATOM
      1 C          64.1077   89.0137   14.3526 C.ar    1  UNL1        0.2396
      2 N          63.2966   88.6698   13.1386 N.ar    1  UNL1       -0.1932
      3 C          63.3262   87.1798   12.9682 C.ar    1  UNL1        0.1667
      4 C          62.7051   86.2738   11.9467 C.ar    1  UNL1        0.0360
      5 C          62.9132   84.7909   12.0339 C.ar    1  UNL1        0.0046
      6 C          63.7425   84.2140   13.1426 C.ar    1  UNL1        0.0208
      7 C          64.3636   85.1199   14.1642 C.ar    1  UNL1        0.1022
      8 N          64.1554   86.6028   14.0770 N.ar    1  UNL1       -0.2081
      9 N          64.6384   87.7362   14.9326 N.ar    1  UNL1       -0.1281
     10 C          61.8758   86.8509   10.8379 C.ar    1  UNL1        0.0030
     11 C          61.6578   88.3328   10.7575 C.ar    1  UNL1        0.0014
     12 C          60.8285   88.9098    9.6487 C.ar    1  UNL1        0.0183
     13 C          60.2172   88.0049    8.6203 C.ar    1  UNL1        0.1057
     14 C          60.4352   86.5230    8.7008 C.ar    1  UNL1        0.0183
     15 C          61.2645   85.9460    9.8095 C.ar    1  UNL1        0.0014
     16 S          59.3879   88.5819    7.5116 S.O2    1  UNL1        0.0104
     17 C          58.5587   89.1589    6.4029 C.3     1  UNL1        0.1816
     18 O          60.1583   89.8657    7.6035 O.2     1  UNL1       -0.1686
     19 O          58.6176   87.2982    7.4197 O.2     1  UNL1       -0.1686
     20 N          64.3461   90.3929   14.8921 N.pl3   1  UNL1       -0.2813
     21 H          63.7071   90.7905   15.5268 H       1  UNL1        0.1551
     22 C          66.7202   92.7896   12.8018 C.ar    1  UNL1       -0.0212
     23 C          67.9821   92.7132   13.6092 C.ar    1  UNL1       -0.0042
     24 C          68.0319   91.8634   14.8443 C.ar    1  UNL1        0.0009
     25 C          66.8199   91.0899   15.2719 C.ar    1  UNL1        0.0147
     26 C          65.5581   91.1663   14.4645 C.ar    1  UNL1        0.0502
     27 C          65.5082   92.0162   13.2294 C.ar    1  UNL1        0.0104
     28 C          66.5207   96.1889    7.8617 C.3     1  UNL1        0.0896
     29 N          66.5706   95.3391    9.0967 N.3     1  UNL1       -0.2715
     30 C          66.0586   95.8784   10.3994 C.3     1  UNL1        0.0725
     31 C          66.1085   95.0286   11.6344 C.3     1  UNL1        0.0217
     32 C          66.6703   93.6394   11.5668 C.3     1  UNL1        0.0251
     33 C          67.1823   93.1001   10.2641 C.3     1  UNL1        0.0217
     34 C          67.1325   93.9499    9.0290 C.3     1  UNL1        0.0725
@<TRIPOS>BOND
     1    28    29    1
     2    29    30    1
     3    30    31    1
     4    31    32    1
     5    32    22    1
     6    22    23   ar
     7    23    24   ar
     8    24    25   ar
     9    25    26   ar
    10    26    20    1
    11    20     1    1
    12     1     2   ar
    13     2     3   ar
    14     3     4   ar
    15     4    10    1
    16    10    11   ar
    17    11    12   ar
    18    12    13   ar
    19    13    16    1
    20    16    17    1
    21    16    18    2
    22    16    19    2
    23    13    14   ar
    24    14    15   ar
    25     4     5   ar
    26     5     6   ar
    27     6     7   ar
    28     7     8   ar
    29     8     9   ar
    30    26    27   ar
    31    32    33    1
    32    33    34    1
    33    34    29    1
    34    27    22   ar
    35     9     1   ar
    36     8     3   ar
    37    15    10   ar
    38    20    21    1
@<TRIPOS>MOLECULE
*****
 34 38 0 0 0
SMALL
GASTEIGER

@<TRIPOS>ATOM
      1 C          63.6769   88.9555   13.9474 C.ar    1  UNL1        0.2396
      2 N          63.3738   87.9951   12.8357 N.ar    1  UNL1       -0.1932
      3 C          63.5080   86.6025   13.3767 C.ar    1  UNL1        0.1667
      4 C          63.3285   85.2565   12.7394 C.ar    1  UNL1        0.0360
      5 C          63.5352   84.0102   13.5481 C.ar    1  UNL1        0.0046
      6 C          63.9213   84.1099   14.9941 C.ar    1  UNL1        0.0208
      7 C          64.1008   85.4559   15.6314 C.ar    1  UNL1        0.1022
      8 N          63.8942   86.7022   14.8227 N.ar    1  UNL1       -0.2081
      9 N          63.9986   88.1564   15.1754 N.ar    1  UNL1       -0.1281
     10 C          62.9424   85.1569   11.2934 C.ar    1  UNL1        0.0030
     11 C          61.8380   86.0150   10.7512 C.ar    1  UNL1        0.0014
     12 C          61.4518   85.9153    9.3051 C.ar    1  UNL1        0.0183
     13 C          62.1701   84.9576    8.4013 C.ar    1  UNL1        0.1057
     14 C          63.2745   84.0995    8.9436 C.ar    1  UNL1        0.0183
     15 C          63.6606   84.1991   10.3896 C.ar    1  UNL1        0.0014
     16 S          61.7840   84.8579    6.9553 S.O2    1  UNL1        0.0104
     17 C          61.3979   84.7583    5.5093 C.3     1  UNL1        0.1816
     18 O          63.1906   84.4714    6.6063 O.2     1  UNL1       -0.1686
     19 O          60.3773   85.2445    7.3043 O.2     1  UNL1       -0.1686
     20 N          63.6613   90.4522   13.8484 N.pl3   1  UNL1       -0.2813
     21 H          62.8050   90.9376   13.8649 H       1  UNL1        0.1551
     22 C          66.4335   92.9369   12.4734 C.ar    1  UNL1       -0.0212
     23 C          67.5284   92.7231   13.4762 C.ar    1  UNL1       -0.0042
     24 C          67.3342   91.7522   14.6031 C.ar    1  UNL1        0.0009
     25 C          66.0451   90.9953   14.7271 C.ar    1  UNL1        0.0147
     26 C          64.9503   91.2091   13.7243 C.ar    1  UNL1        0.0502
     27 C          65.1445   92.1800   12.5975 C.ar    1  UNL1        0.0104
     28 C          67.2102   96.8203    7.9661 C.3     1  UNL1        0.0896
     29 N          67.0160   95.8495    9.0929 N.3     1  UNL1       -0.2715
     30 C          67.4683   94.4271    8.9438 C.3     1  UNL1        0.0725
     31 C          67.2741   93.4563   10.0706 C.3     1  UNL1        0.0217
     32 C          66.6276   93.9078   11.3466 C.3     1  UNL1        0.0251
     33 C          66.1753   95.3302   11.4958 C.3     1  UNL1        0.0217
     34 C          66.3694   96.3010   10.3689 C.3     1  UNL1        0.0725
@<TRIPOS>BOND
     1    28    29    1
     2    29    30    1
     3    30    31    1
     4    31    32    1
     5    32    22    1
     6    22    23   ar
     7    23    24   ar
     8    24    25   ar
     9    25    26   ar
    10    26    20    1
    11    20     1    1
    12     1     2   ar
    13     2     3   ar
    14     3     4   ar
    15     4    10    1
    16    10    11   ar
    17    11    12   ar
    18    12    13   ar
    19    13    16    1
    20    16    17    1
    21    16    18    2
    22    16    19    2
    23    13    14   ar
    24    14    15   ar
    25     4     5   ar
    26     5     6   ar
    27     6     7   ar
    28     7     8   ar
    29     8     9   ar
    30    26    27   ar
    31    32    33    1
    32    33    34    1
    33    34    29    1
    34    27    22   ar
    35     9     1   ar
    36     8     3   ar
    37    15    10   ar
    38    20    21    1
@<TRIPOS>MOLECULE
*****
 34 38 0 0 0
SMALL
GASTEIGER

@<TRIPOS>ATOM
      1 C          64.3317   86.7109   14.6633 C.ar    1  UNL1        0.2396
      2 N          64.7778   88.0062   14.0526 N.ar    1  UNL1       -0.1932
      3 C          64.3017   89.1225   14.9343 C.ar    1  UNL1        0.1667
      4 C          64.4467   90.6122   14.8342 C.ar    1  UNL1        0.0360
      5 C          63.8514   91.4963   15.8896 C.ar    1  UNL1        0.0046
      6 C          63.1112   90.8908   17.0452 C.ar    1  UNL1        0.0208
      7 C          62.9662   89.4011   17.1453 C.ar    1  UNL1        0.1022
      8 N          63.5615   88.5170   16.0899 N.ar    1  UNL1       -0.2081
      9 N          63.5800   87.0265   15.9224 N.ar    1  UNL1       -0.1281
     10 C          65.1870   91.2177   13.6786 C.ar    1  UNL1        0.0030
     11 C          66.6464   91.5390   13.8083 C.ar    1  UNL1        0.0014
     12 C          67.3867   92.1445   12.6526 C.ar    1  UNL1        0.0183
     13 C          66.6675   92.4286   11.3673 C.ar    1  UNL1        0.1057
     14 C          65.2080   92.1072   11.2376 C.ar    1  UNL1        0.0183
     15 C          64.4678   91.5018   12.3932 C.ar    1  UNL1        0.0014
     16 S          67.4077   93.0341   10.2117 S.O2    1  UNL1        0.0104
     17 C          68.1479   93.6395    9.0561 C.3     1  UNL1        0.1816
     18 O          67.0276   94.4052   10.6867 O.2     1  UNL1       -0.1686
     19 O          67.7877   91.6630    9.7368 O.2     1  UNL1       -0.1686
     20 N          64.5917   85.3403   14.1117 N.pl3   1  UNL1       -0.2813
     21 H          65.2571   84.7551   14.5407 H       1  UNL1        0.1551
     22 C          62.3467   85.3638   10.8393 C.ar    1  UNL1       -0.0212
     23 C          62.3302   83.9036   10.4963 C.ar    1  UNL1       -0.0042
     24 C          63.0676   82.9223   11.3585 C.ar    1  UNL1        0.0009
     25 C          63.8215   83.4013   12.5637 C.ar    1  UNL1        0.0147
     26 C          63.8379   84.8614   12.9066 C.ar    1  UNL1        0.0502
     27 C          63.1005   85.8427   12.0444 C.ar    1  UNL1        0.0104
     28 C          59.3970   89.2888    7.3906 C.3     1  UNL1        0.0896
     29 N          60.1344   88.3076    8.2528 N.3     1  UNL1       -0.2715
     30 C          60.9390   88.7930    9.4219 C.3     1  UNL1        0.0725
     31 C          61.6764   87.8117   10.2841 C.3     1  UNL1        0.0217
     32 C          61.6092   86.3451    9.9772 C.3     1  UNL1        0.0251
     33 C          60.8046   85.8596    8.8080 C.3     1  UNL1        0.0217
     34 C          60.0672   86.8408    7.9458 C.3     1  UNL1        0.0725
@<TRIPOS>BOND
     1    28    29    1
     2    29    30    1
     3    30    31    1
     4    31    32    1
     5    32    22    1
     6    22    23   ar
     7    23    24   ar
     8    24    25   ar
     9    25    26   ar
    10    26    20    1
    11    20     1    1
    12     1     2   ar
    13     2     3   ar
    14     3     4   ar
    15     4    10    1
    16    10    11   ar
    17    11    12   ar
    18    12    13   ar
    19    13    16    1
    20    16    17    1
    21    16    18    2
    22    16    19    2
    23    13    14   ar
    24    14    15   ar
    25     4     5   ar
    26     5     6   ar
    27     6     7   ar
    28     7     8   ar
    29     8     9   ar
    30    26    27   ar
    31    32    33    1
    32    33    34    1
    33    34    29    1
    34    27    22   ar
    35     9     1   ar
    36     8     3   ar
    37    15    10   ar
    38    20    21    1
