@<TRIPOS>MOLECULE
*****
 44 47 0 0 0
SMALL
GASTEIGER

@<TRIPOS>ATOM
      1 C          63.9329   90.9493   12.8223 C.3     1  UNL1        0.1111
      2 C          65.6095   92.6146   11.7425 C.2     1  UNL1        0.2457
      3 O          65.4283   93.5488   12.9021 O.2     1  UNL1       -0.2702
      4 N          64.8617   91.3148   11.7027 N.am    1  UNL1       -0.2992
      5 H          64.9806   90.7017   10.9416 H       1  UNL1        0.1498
      6 C          65.3319   95.2671   10.3689 C.3     1  UNL1        0.0343
      7 C          66.3995   94.3064    9.9361 C.ar    1  UNL1        0.0162
      8 C          67.3283   94.6720    8.8163 C.ar    1  UNL1        0.1298
      9 O          67.1895   95.9983    8.1295 O.3     1  UNL1       -0.5058
     10 C          68.3959   93.7114    8.3835 C.ar    1  UNL1        0.0363
     11 C          68.5347   92.3851    9.0705 C.ar    1  UNL1        0.0032
     12 C          67.6059   92.0195   10.1901 C.ar    1  UNL1        0.0044
     13 C          66.5383   92.9802   10.6229 C.ar    1  UNL1        0.0523
     14 H          66.5226   96.5984    8.3999 H       1  UNL1        0.2922
     15 C          62.8191   89.9732   12.5844 C.3     1  UNL1        0.1451
     16 O          61.5637   90.0539   13.4014 O.3     1  UNL1       -0.3813
     17 H          60.9509   89.3557   13.1224 H       1  UNL1        0.2105
     18 C          62.9607   88.9163   11.5294 C.3     1  UNL1        0.1037
     19 N          62.9400   87.4662   11.9130 N.3     1  UNL1       -0.2644
     20 C          63.5783   87.0204   13.1951 C.3     1  UNL1        0.0725
     21 C          63.5576   85.5703   13.5786 C.3     1  UNL1        0.0161
     22 C          64.1958   85.1245   14.8607 C.3     1  UNL1        0.0014
     23 C          64.1751   83.6745   15.2442 C.3     1  UNL1        0.0000
     24 C          63.5161   82.6704   14.3456 C.3     1  UNL1        0.0000
     25 C          62.8779   83.1162   13.0635 C.3     1  UNL1        0.0001
     26 C          62.8986   84.5662   12.6800 C.3     1  UNL1        0.0032
     27 C          62.2603   85.0121   11.3978 C.3     1  UNL1        0.0254
     28 C          62.2810   86.4621   11.0144 C.3     1  UNL1        0.1348
     29 C          61.6428   86.9080    9.7322 C.2     1  UNL1        0.2369
     30 O          62.2844   86.5725    8.4186 O.2     1  UNL1       -0.2737
     31 N          60.3628   87.6895    9.7637 N.am    1  UNL1       -0.3064
     32 H          59.9416   87.9097   10.6259 H       1  UNL1        0.1493
     33 C          59.7245   88.1354    8.4817 C.3     1  UNL1        0.0569
     34 C          59.1042   86.7794    8.3189 C.3     1  UNL1        0.0196
     35 C          60.3448   89.4914    8.6445 C.3     1  UNL1        0.0196
     36 C          59.0862   88.5813    7.1996 C.3     1  UNL1        0.0196
     37 C          64.1178   91.5599   14.1799 C.3     1  UNL1        0.0842
     38 S          65.1871   91.0423   15.0957 S.3     1  UNL1       -0.1118
     39 C          66.5178   91.7316   15.1601 C.ar    1  UNL1        0.0253
     40 C          66.7753   92.7680   16.2135 C.ar    1  UNL1        0.0061
     41 C          68.1060   93.4574   16.2779 C.ar    1  UNL1        0.0005
     42 C          69.1791   93.1104   15.2889 C.ar    1  UNL1        0.0000
     43 C          68.9215   92.0740   14.2355 C.ar    1  UNL1        0.0005
     44 C          67.5908   91.3847   14.1711 C.ar    1  UNL1        0.0061
@<TRIPOS>BOND
     1     6     7    1
     2     7     8   ar
     3     8     9    1
     4     8    10   ar
     5    10    11   ar
     6    11    12   ar
     7    12    13   ar
     8    13     2    1
     9     2     3    2
    10     2     4   am
    11     4     1    1
    12     1    37    1
    13    37    38    1
    14    38    39    1
    15    39    40   ar
    16    40    41   ar
    17    41    42   ar
    18    42    43   ar
    19    43    44   ar
    20     1    15    1
    21    15    16    1
    22    15    18    1
    23    18    19    1
    24    19    20    1
    25    21    20    1
    26    21    22    1
    27    22    23    1
    28    23    24    1
    29    24    25    1
    30    26    25    1
    31    26    27    1
    32    27    28    1
    33    28    29    1
    34    29    30    2
    35    29    31   am
    36    31    33    1
    37    33    34    1
    38    33    35    1
    39    33    36    1
    40    13     7   ar
    41    44    39   ar
    42    28    19    1
    43    26    21    1
    44     9    14    1
    45     4     5    1
    46    16    17    1
    47    31    32    1
@<TRIPOS>MOLECULE
*****
 44 47 0 0 0
SMALL
GASTEIGER

@<TRIPOS>ATOM
      1 C          63.9709   90.3485   13.2967 C.3     1  UNL1        0.1111
      2 C          65.4715   92.3463   12.5845 C.2     1  UNL1        0.2457
      3 O          65.5658   92.7856   14.0157 O.2     1  UNL1       -0.2702
      4 N          64.6740   91.1277   12.2251 N.am    1  UNL1       -0.2992
      5 H          64.6122   90.8394   11.2858 H       1  UNL1        0.1498
      6 C          68.2182   91.5315   11.6950 C.3     1  UNL1        0.0343
      7 C          67.5480   92.7181   11.0682 C.ar    1  UNL1        0.0162
      8 C          68.2513   93.4973    9.9965 C.ar    1  UNL1        0.1298
      9 O          69.6246   93.0899    9.5517 O.3     1  UNL1       -0.5058
     10 C          67.5811   94.6839    9.3697 C.ar    1  UNL1        0.0363
     11 C          66.2077   95.0912    9.8145 C.ar    1  UNL1        0.0032
     12 C          65.5045   94.3121   10.8861 C.ar    1  UNL1        0.0044
     13 C          66.1747   93.1255   11.5129 C.ar    1  UNL1        0.0523
     14 H          70.0433   92.3487    9.9433 H       1  UNL1        0.2922
     15 C          62.7728   89.5139   12.9534 C.3     1  UNL1        0.1451
     16 O          61.3936   90.0233   13.2511 O.3     1  UNL1       -0.3813
     17 H          60.7383   89.3662   12.9687 H       1  UNL1        0.2105
     18 C          62.9537   88.1699   12.3123 C.3     1  UNL1        0.1037
     19 N          62.0822   87.7648   11.1606 N.3     1  UNL1       -0.2644
     20 C          61.5271   88.8082   10.2369 C.3     1  UNL1        0.0725
     21 C          60.6555   88.4031    9.0852 C.3     1  UNL1        0.0161
     22 C          60.1004   89.4464    8.1615 C.3     1  UNL1        0.0014
     23 C          59.2289   89.0414    7.0098 C.3     1  UNL1        0.0000
     24 C          58.9126   87.5929    6.7818 C.3     1  UNL1        0.0000
     25 C          59.4677   86.5496    7.7055 C.3     1  UNL1        0.0001
     26 C          60.3392   86.9547    8.8572 C.3     1  UNL1        0.0032
     27 C          60.8944   85.9113    9.7809 C.3     1  UNL1        0.0254
     28 C          61.7658   86.3164   10.9326 C.3     1  UNL1        0.1348
     29 C          62.3210   85.2731   11.8564 C.2     1  UNL1        0.2369
     30 O          62.0768   85.3722   13.3330 O.2     1  UNL1       -0.2737
     31 N          63.1204   84.1306   11.3034 N.am    1  UNL1       -0.3064
     32 H          63.2807   84.0655   10.3342 H       1  UNL1        0.1493
     33 C          63.6756   83.0873   12.2271 C.3     1  UNL1        0.0569
     34 C          64.6647   84.0827   12.7569 C.3     1  UNL1        0.0196
     35 C          62.6864   82.0919   11.6973 C.3     1  UNL1        0.0196
     36 C          64.2307   82.0439   13.1507 C.3     1  UNL1        0.0196
     37 C          64.4658   90.4040   14.7116 C.3     1  UNL1        0.0842
     38 S          63.5997   89.9034   15.8292 S.3     1  UNL1       -0.1118
     39 C          63.5708   88.4402   16.1581 C.ar    1  UNL1        0.0253
     40 C          64.3055   87.4618   15.2902 C.ar    1  UNL1        0.0061
     41 C          64.2766   85.9985   15.6190 C.ar    1  UNL1        0.0005
     42 C          63.5130   85.5137   16.8157 C.ar    1  UNL1        0.0000
     43 C          62.7784   86.4921   17.6835 C.ar    1  UNL1        0.0005
     44 C          62.8073   87.9553   17.3546 C.ar    1  UNL1        0.0061
@<TRIPOS>BOND
     1     6     7    1
     2     7     8   ar
     3     8     9    1
     4     8    10   ar
     5    10    11   ar
     6    11    12   ar
     7    12    13   ar
     8    13     2    1
     9     2     3    2
    10     2     4   am
    11     4     1    1
    12     1    37    1
    13    37    38    1
    14    38    39    1
    15    39    40   ar
    16    40    41   ar
    17    41    42   ar
    18    42    43   ar
    19    43    44   ar
    20     1    15    1
    21    15    16    1
    22    15    18    1
    23    18    19    1
    24    19    20    1
    25    21    20    1
    26    21    22    1
    27    22    23    1
    28    23    24    1
    29    24    25    1
    30    26    25    1
    31    26    27    1
    32    27    28    1
    33    28    29    1
    34    29    30    2
    35    29    31   am
    36    31    33    1
    37    33    34    1
    38    33    35    1
    39    33    36    1
    40    13     7   ar
    41    44    39   ar
    42    28    19    1
    43    26    21    1
    44     9    14    1
    45     4     5    1
    46    16    17    1
    47    31    32    1
@<TRIPOS>MOLECULE
*****
 44 47 0 0 0
SMALL
GASTEIGER

@<TRIPOS>ATOM
      1 C          62.2654   88.4072   11.0647 C.3     1  UNL1        0.1111
      2 C          63.2763   90.1136   12.7428 C.2     1  UNL1        0.2457
      3 O          62.0003   90.0942   13.5312 O.2     1  UNL1       -0.2702
      4 N          63.4088   89.2701   11.5095 N.am    1  UNL1       -0.2992
      5 H          64.2463   89.2828   10.9921 H       1  UNL1        0.1498
      6 C          64.4280   92.1582   10.8740 C.3     1  UNL1        0.0343
      7 C          64.9956   91.9988   12.2533 C.ar    1  UNL1        0.0162
      8 C          66.1391   92.8618   12.6981 C.ar    1  UNL1        0.1298
      9 O          66.7150   93.8841   11.7637 O.3     1  UNL1       -0.5058
     10 C          66.7066   92.7023   14.0774 C.ar    1  UNL1        0.0363
     11 C          66.1307   91.6800   15.0119 C.ar    1  UNL1        0.0032
     12 C          64.9873   90.8171   14.5670 C.ar    1  UNL1        0.0044
     13 C          64.4197   90.9765   13.1877 C.ar    1  UNL1        0.0523
     14 H          66.3604   93.9836   10.9021 H       1  UNL1        0.2922
     15 C          61.9703   87.1240   11.7832 C.3     1  UNL1        0.1451
     16 O          60.5539   86.6493   11.9196 O.3     1  UNL1       -0.3813
     17 H          60.5395   85.8107   12.4069 H       1  UNL1        0.2105
     18 C          63.0916   86.3155   12.3655 C.3     1  UNL1        0.1037
     19 N          62.9431   84.8311   12.5224 N.3     1  UNL1       -0.2644
     20 C          63.1753   83.9259   11.3491 C.3     1  UNL1        0.0725
     21 C          63.0268   82.4415   11.5060 C.3     1  UNL1        0.0161
     22 C          63.2589   81.5364   10.3327 C.3     1  UNL1        0.0014
     23 C          63.1104   80.0520   10.4897 C.3     1  UNL1        0.0000
     24 C          62.7298   79.4729   11.8200 C.3     1  UNL1        0.0000
     25 C          62.4976   80.3781   12.9933 C.3     1  UNL1        0.0001
     26 C          62.6461   81.8624   12.8363 C.3     1  UNL1        0.0032
     27 C          62.4140   82.7676   14.0097 C.3     1  UNL1        0.0254
     28 C          62.5625   84.2520   13.8527 C.3     1  UNL1        0.1348
     29 C          62.3304   85.1572   15.0261 C.2     1  UNL1        0.2369
     30 O          60.9688   85.2429   15.6494 O.2     1  UNL1       -0.2737
     31 N          63.4599   85.9768   15.5760 N.am    1  UNL1       -0.3064
     32 H          64.3536   85.9205   15.1669 H       1  UNL1        0.1493
     33 C          63.2279   86.8820   16.7493 C.3     1  UNL1        0.0569
     34 C          63.5043   88.0752   15.8834 C.3     1  UNL1        0.0196
     35 C          62.9514   85.6888   17.6152 C.3     1  UNL1        0.0196
     36 C          62.9958   87.7872   17.9226 C.3     1  UNL1        0.0196
     37 C          61.4170   88.8275    9.9012 C.3     1  UNL1        0.0842
     38 S          60.5089   87.8349    9.2379 S.3     1  UNL1       -0.1118
     39 C          61.0883   86.7035    8.4415 C.ar    1  UNL1        0.0253
     40 C          60.2458   85.9948    7.4227 C.ar    1  UNL1        0.0061
     41 C          60.8253   84.8634    6.6263 C.ar    1  UNL1        0.0005
     42 C          62.2473   84.4409    6.8486 C.ar    1  UNL1        0.0000
     43 C          63.0898   85.1496    7.8674 C.ar    1  UNL1        0.0005
     44 C          62.5103   86.2810    8.6638 C.ar    1  UNL1        0.0061
@<TRIPOS>BOND
     1     6     7    1
     2     7     8   ar
     3     8     9    1
     4     8    10   ar
     5    10    11   ar
     6    11    12   ar
     7    12    13   ar
     8    13     2    1
     9     2     3    2
    10     2     4   am
    11     4     1    1
    12     1    37    1
    13    37    38    1
    14    38    39    1
    15    39    40   ar
    16    40    41   ar
    17    41    42   ar
    18    42    43   ar
    19    43    44   ar
    20     1    15    1
    21    15    16    1
    22    15    18    1
    23    18    19    1
    24    19    20    1
    25    21    20    1
    26    21    22    1
    27    22    23    1
    28    23    24    1
    29    24    25    1
    30    26    25    1
    31    26    27    1
    32    27    28    1
    33    28    29    1
    34    29    30    2
    35    29    31   am
    36    31    33    1
    37    33    34    1
    38    33    35    1
    39    33    36    1
    40    13     7   ar
    41    44    39   ar
    42    28    19    1
    43    26    21    1
    44     9    14    1
    45     4     5    1
    46    16    17    1
    47    31    32    1
@<TRIPOS>MOLECULE
*****
 44 47 0 0 0
SMALL
GASTEIGER

@<TRIPOS>ATOM
      1 C          64.3127   90.7031   13.3824 C.3     1  UNL1        0.1111
      2 C          65.9916   92.1901   12.0709 C.2     1  UNL1        0.2457
      3 O          67.1361   91.4858   12.7374 O.2     1  UNL1       -0.2702
      4 N          64.5799   91.7987   12.3934 N.am    1  UNL1       -0.2992
      5 H          63.8288   92.2609   11.9560 H       1  UNL1        0.1498
      6 C          67.7842   91.6837    9.7194 C.3     1  UNL1        0.0343
      7 C          67.1552   93.0325    9.9062 C.ar    1  UNL1        0.0162
      8 C          67.4224   94.1282    8.9171 C.ar    1  UNL1        0.1298
      9 O          68.3187   93.8750    7.7413 O.3     1  UNL1       -0.5058
     10 C          66.7934   95.4770    9.1039 C.ar    1  UNL1        0.0363
     11 C          65.8970   95.7302   10.2798 C.ar    1  UNL1        0.0032
     12 C          65.6298   94.6346   11.2687 C.ar    1  UNL1        0.0044
     13 C          66.2589   93.2857   11.0819 C.ar    1  UNL1        0.0523
     14 H          68.7117   93.0324    7.6247 H       1  UNL1        0.2922
     15 C          63.1910   89.7359   13.1453 C.3     1  UNL1        0.1451
     16 O          61.7900   90.1013   13.5375 O.3     1  UNL1       -0.3813
     17 H          61.1915   89.3705   13.3170 H       1  UNL1        0.2105
     18 C          63.4702   88.4032   12.5159 C.3     1  UNL1        0.1037
     19 N          62.5548   87.8684   11.4547 N.3     1  UNL1       -0.2644
     20 C          61.8544   88.8125   10.5230 C.3     1  UNL1        0.0725
     21 C          60.9391   88.2777    9.4617 C.3     1  UNL1        0.0161
     22 C          60.2387   89.2218    8.5300 C.3     1  UNL1        0.0014
     23 C          59.3234   88.6870    7.4688 C.3     1  UNL1        0.0000
     24 C          59.1085   87.2081    7.3393 C.3     1  UNL1        0.0000
     25 C          59.8089   86.2641    8.2710 C.3     1  UNL1        0.0001
     26 C          60.7242   86.7989    9.3322 C.3     1  UNL1        0.0032
     27 C          61.4246   85.8548   10.2640 C.3     1  UNL1        0.0254
     28 C          62.3399   86.3896   11.3252 C.3     1  UNL1        0.1348
     29 C          63.0404   85.4455   12.2570 C.2     1  UNL1        0.2369
     30 O          63.9577   84.3930   11.7085 O.2     1  UNL1       -0.2737
     31 N          62.8235   85.5539   13.7372 N.am    1  UNL1       -0.3064
     32 H          62.2214   86.2447   14.0972 H       1  UNL1        0.1493
     33 C          63.5239   84.6099   14.6690 C.3     1  UNL1        0.0569
     34 C          64.6490   85.5908   14.8170 C.3     1  UNL1        0.0196
     35 C          62.3988   83.6290   14.5210 C.3     1  UNL1        0.0196
     36 C          64.2243   83.6659   15.6008 C.3     1  UNL1        0.0196
     37 C          65.1672   90.5746   14.6085 C.3     1  UNL1        0.0842
     38 S          65.3398   91.7467   15.5286 S.3     1  UNL1       -0.1118
     39 C          66.6800   92.4077   15.6577 C.ar    1  UNL1        0.0253
     40 C          67.8271   91.6635   16.2746 C.ar    1  UNL1        0.0061
     41 C          69.1673   92.3245   16.4038 C.ar    1  UNL1        0.0005
     42 C          69.3605   93.7299   15.9161 C.ar    1  UNL1        0.0000
     43 C          68.2135   94.4741   15.2993 C.ar    1  UNL1        0.0005
     44 C          66.8733   93.8130   15.1701 C.ar    1  UNL1        0.0061
@<TRIPOS>BOND
     1     6     7    1
     2     7     8   ar
     3     8     9    1
     4     8    10   ar
     5    10    11   ar
     6    11    12   ar
     7    12    13   ar
     8    13     2    1
     9     2     3    2
    10     2     4   am
    11     4     1    1
    12     1    37    1
    13    37    38    1
    14    38    39    1
    15    39    40   ar
    16    40    41   ar
    17    41    42   ar
    18    42    43   ar
    19    43    44   ar
    20     1    15    1
    21    15    16    1
    22    15    18    1
    23    18    19    1
    24    19    20    1
    25    21    20    1
    26    21    22    1
    27    22    23    1
    28    23    24    1
    29    24    25    1
    30    26    25    1
    31    26    27    1
    32    27    28    1
    33    28    29    1
    34    29    30    2
    35    29    31   am
    36    31    33    1
    37    33    34    1
    38    33    35    1
    39    33    36    1
    40    13     7   ar
    41    44    39   ar
    42    28    19    1
    43    26    21    1
    44     9    14    1
    45     4     5    1
    46    16    17    1
    47    31    32    1
@<TRIPOS>MOLECULE
*****
 44 47 0 0 0
SMALL
GASTEIGER

@<TRIPOS>ATOM
      1 C          60.8514   88.6235    9.5217 C.3     1  UNL1        0.1111
      2 C          61.7095   86.3880   10.5298 C.2     1  UNL1        0.2457
      3 O          60.8565   86.6081   11.7439 O.2     1  UNL1       -0.2702
      4 N          61.7070   87.3958    9.4187 N.am    1  UNL1       -0.2992
      5 H          62.2668   87.2514    8.6219 H       1  UNL1        0.1498
      6 C          62.3152   84.7718   12.9835 C.3     1  UNL1        0.0343
      7 C          62.8679   84.3522   11.6537 C.ar    1  UNL1        0.0162
      8 C          63.7235   83.1244   11.5507 C.ar    1  UNL1        0.1298
      9 O          64.0264   82.3163   12.7775 O.3     1  UNL1       -0.5058
     10 C          64.2762   82.7048   10.2209 C.ar    1  UNL1        0.0363
     11 C          63.9733   83.5130    8.9940 C.ar    1  UNL1        0.0032
     12 C          63.1177   84.7407    9.0970 C.ar    1  UNL1        0.0044
     13 C          62.5651   85.1603   10.4268 C.ar    1  UNL1        0.0523
     14 H          63.6811   82.5784   13.6082 H       1  UNL1        0.2922
     15 C          61.1979   89.6984   10.5089 C.3     1  UNL1        0.1451
     16 O          60.5485   91.0469   10.4082 O.3     1  UNL1       -0.3813
     17 H          60.8810   91.6196   11.1169 H       1  UNL1        0.2105
     18 C          62.1937   89.4249   11.5968 C.3     1  UNL1        0.1037
     19 N          63.2296   90.4537   11.9413 N.3     1  UNL1       -0.2644
     20 C          63.7420   91.3856   10.8835 C.3     1  UNL1        0.0725
     21 C          64.7778   92.4144   11.2281 C.3     1  UNL1        0.0161
     22 C          65.2902   93.3463   10.1703 C.3     1  UNL1        0.0014
     23 C          66.3260   94.3750   10.5148 C.3     1  UNL1        0.0000
     24 C          66.8495   94.4718   11.9172 C.3     1  UNL1        0.0000
     25 C          66.3371   93.5399   12.9750 C.3     1  UNL1        0.0001
     26 C          65.3013   92.5112   12.6305 C.3     1  UNL1        0.0032
     27 C          64.7888   91.5792   13.6883 C.3     1  UNL1        0.0254
     28 C          63.7530   90.5505   13.3437 C.3     1  UNL1        0.1348
     29 C          63.2406   89.6186   14.4015 C.2     1  UNL1        0.2369
     30 O          61.8140   89.7113   14.8558 O.2     1  UNL1       -0.2737
     31 N          64.1547   88.5938   15.0051 N.am    1  UNL1       -0.3064
     32 H          65.0910   88.5330   14.7070 H       1  UNL1        0.1493
     33 C          63.6423   87.6619   16.0629 C.3     1  UNL1        0.0569
     34 C          63.1554   88.8351   16.8606 C.3     1  UNL1        0.0196
     35 C          64.1293   86.4887   15.2651 C.3     1  UNL1        0.0196
     36 C          63.1300   86.7300   17.1206 C.3     1  UNL1        0.0196
     37 C          59.6494   88.7764    8.6375 C.3     1  UNL1        0.0842
     38 S          59.7892   88.6354    7.1508 S.3     1  UNL1       -0.1118
     39 C          59.3567   89.7522    6.2475 C.ar    1  UNL1        0.0253
     40 C          57.8980   90.0586    6.0793 C.ar    1  UNL1        0.0061
     41 C          57.4656   91.1754    5.1760 C.ar    1  UNL1        0.0005
     42 C          58.4919   91.9858    4.4411 C.ar    1  UNL1        0.0000
     43 C          59.9505   91.6793    4.6094 C.ar    1  UNL1        0.0005
     44 C          60.3830   90.5625    5.5126 C.ar    1  UNL1        0.0061
@<TRIPOS>BOND
     1     6     7    1
     2     7     8   ar
     3     8     9    1
     4     8    10   ar
     5    10    11   ar
     6    11    12   ar
     7    12    13   ar
     8    13     2    1
     9     2     3    2
    10     2     4   am
    11     4     1    1
    12     1    37    1
    13    37    38    1
    14    38    39    1
    15    39    40   ar
    16    40    41   ar
    17    41    42   ar
    18    42    43   ar
    19    43    44   ar
    20     1    15    1
    21    15    16    1
    22    15    18    1
    23    18    19    1
    24    19    20    1
    25    21    20    1
    26    21    22    1
    27    22    23    1
    28    23    24    1
    29    24    25    1
    30    26    25    1
    31    26    27    1
    32    27    28    1
    33    28    29    1
    34    29    30    2
    35    29    31   am
    36    31    33    1
    37    33    34    1
    38    33    35    1
    39    33    36    1
    40    13     7   ar
    41    44    39   ar
    42    28    19    1
    43    26    21    1
    44     9    14    1
    45     4     5    1
    46    16    17    1
    47    31    32    1
@<TRIPOS>MOLECULE
*****
 44 47 0 0 0
SMALL
GASTEIGER

@<TRIPOS>ATOM
      1 C          60.8944   88.1221   11.1312 C.3     1  UNL1        0.1111
      2 C          62.2768   86.2516   12.2890 C.2     1  UNL1        0.2457
      3 O          63.4841   87.1418   12.2856 O.2     1  UNL1       -0.2702
      4 N          60.9819   86.7418   11.7118 N.am    1  UNL1       -0.2992
      5 H          60.1895   86.1576   11.7141 H       1  UNL1        0.1498
      6 C          63.1763   83.9584   10.5768 C.3     1  UNL1        0.0343
      7 C          62.8141   83.7248   12.0135 C.ar    1  UNL1        0.0162
      8 C          62.9016   82.3444   12.5941 C.ar    1  UNL1        0.1298
      9 O          63.3514   81.1978   11.7380 O.3     1  UNL1       -0.5058
     10 C          62.5394   82.1107   14.0308 C.ar    1  UNL1        0.0363
     11 C          62.0897   83.2574   14.8870 C.ar    1  UNL1        0.0032
     12 C          62.0021   84.6377   14.3064 C.ar    1  UNL1        0.0044
     13 C          62.3643   84.8714   12.8696 C.ar    1  UNL1        0.0523
     14 H          63.5776   81.3438   10.8405 H       1  UNL1        0.2922
     15 C          60.7116   89.3055   12.0346 C.3     1  UNL1        0.1451
     16 O          59.6398   90.3135   11.7426 O.3     1  UNL1       -0.3813
     17 H          59.6574   91.0091   12.4184 H       1  UNL1        0.2105
     18 C          61.6006   89.4809   13.2300 C.3     1  UNL1        0.1037
     19 N          62.8967   90.2245   13.0981 N.3     1  UNL1       -0.2644
     20 C          63.1857   91.0134   11.8555 C.3     1  UNL1        0.0725
     21 C          64.4818   91.7570   11.7236 C.3     1  UNL1        0.0161
     22 C          64.7707   92.5459   10.4811 C.3     1  UNL1        0.0014
     23 C          66.0668   93.2894   10.3493 C.3     1  UNL1        0.0000
     24 C          67.0738   93.2440   11.4600 C.3     1  UNL1        0.0000
     25 C          66.7849   92.4551   12.7026 C.3     1  UNL1        0.0001
     26 C          65.4888   91.7116   12.8344 C.3     1  UNL1        0.0032
     27 C          65.1998   90.9226   14.0770 C.3     1  UNL1        0.0254
     28 C          63.9038   90.1790   14.2088 C.3     1  UNL1        0.1348
     29 C          63.6147   89.3900   15.4515 C.2     1  UNL1        0.2369
     30 O          63.3452   90.1001   16.7450 O.2     1  UNL1       -0.2737
     31 N          63.5953   87.8910   15.4005 N.am    1  UNL1       -0.3064
     32 H          63.7722   87.4250   14.5515 H       1  UNL1        0.1493
     33 C          63.3063   87.1020   16.6430 C.3     1  UNL1        0.0569
     34 C          62.3850   88.1865   17.1174 C.3     1  UNL1        0.0196
     35 C          64.2276   86.0176   16.1687 C.3     1  UNL1        0.0196
     36 C          63.0173   86.3131   17.8855 C.3     1  UNL1        0.0196
     37 C          60.9896   88.3189    9.6472 C.3     1  UNL1        0.0842
     38 S          60.2531   87.3985    8.7198 S.3     1  UNL1       -0.1118
     39 C          60.9989   86.3341    7.9709 C.ar    1  UNL1        0.0253
     40 C          62.4422   86.0693    8.2824 C.ar    1  UNL1        0.0061
     41 C          63.1880   85.0049    7.5335 C.ar    1  UNL1        0.0005
     42 C          62.4906   84.2053    6.4731 C.ar    1  UNL1        0.0000
     43 C          61.0474   84.4701    6.1617 C.ar    1  UNL1        0.0005
     44 C          60.3016   85.5345    6.9106 C.ar    1  UNL1        0.0061
@<TRIPOS>BOND
     1     6     7    1
     2     7     8   ar
     3     8     9    1
     4     8    10   ar
     5    10    11   ar
     6    11    12   ar
     7    12    13   ar
     8    13     2    1
     9     2     3    2
    10     2     4   am
    11     4     1    1
    12     1    37    1
    13    37    38    1
    14    38    39    1
    15    39    40   ar
    16    40    41   ar
    17    41    42   ar
    18    42    43   ar
    19    43    44   ar
    20     1    15    1
    21    15    16    1
    22    15    18    1
    23    18    19    1
    24    19    20    1
    25    21    20    1
    26    21    22    1
    27    22    23    1
    28    23    24    1
    29    24    25    1
    30    26    25    1
    31    26    27    1
    32    27    28    1
    33    28    29    1
    34    29    30    2
    35    29    31   am
    36    31    33    1
    37    33    34    1
    38    33    35    1
    39    33    36    1
    40    13     7   ar
    41    44    39   ar
    42    28    19    1
    43    26    21    1
    44     9    14    1
    45     4     5    1
    46    16    17    1
    47    31    32    1
@<TRIPOS>MOLECULE
*****
 44 47 0 0 0
SMALL
GASTEIGER

@<TRIPOS>ATOM
      1 C          60.6168   88.8113    9.6995 C.3     1  UNL1        0.1111
      2 C          59.6997   89.3207    7.3226 C.2     1  UNL1        0.2457
      3 O          59.0436   87.9723    7.2867 O.2     1  UNL1       -0.2702
      4 N          60.4863   89.7403    8.5290 N.am    1  UNL1       -0.2992
      5 H          60.9169   90.6253    8.5525 H       1  UNL1        0.1498
      6 C          56.9816   90.0613    6.2914 C.3     1  UNL1        0.0343
      7 C          58.2101   90.6199    5.6365 C.ar    1  UNL1        0.0162
      8 C          58.0795   91.5489    4.4660 C.ar    1  UNL1        0.1298
      9 O          56.7205   91.9192    3.9504 O.3     1  UNL1       -0.5058
     10 C          59.3079   92.1075    3.8112 C.ar    1  UNL1        0.0363
     11 C          60.6670   91.7372    4.3268 C.ar    1  UNL1        0.0032
     12 C          60.7976   90.8083    5.4973 C.ar    1  UNL1        0.0044
     13 C          59.5691   90.2497    6.1521 C.ar    1  UNL1        0.0523
     14 H          55.9531   91.5703    4.3594 H       1  UNL1        0.2922
     15 C          60.7947   89.3667   11.0814 C.3     1  UNL1        0.1451
     16 O          59.7547   90.2778   11.6632 O.3     1  UNL1       -0.3813
     17 H          60.0219   90.5445   12.5568 H       1  UNL1        0.2105
     18 C          62.0125   89.0109   11.8817 C.3     1  UNL1        0.1037
     19 N          63.0469   90.0561   12.1779 N.3     1  UNL1       -0.2644
     20 C          63.5425   90.9526   11.0822 C.3     1  UNL1        0.0725
     21 C          64.5769   91.9978   11.3785 C.3     1  UNL1        0.0161
     22 C          65.0724   92.8943   10.2828 C.3     1  UNL1        0.0014
     23 C          66.1068   93.9394   10.5790 C.3     1  UNL1        0.0000
     24 C          66.6457   94.0879   11.9710 C.3     1  UNL1        0.0000
     25 C          66.1502   93.1913   13.0667 C.3     1  UNL1        0.0001
     26 C          65.1158   92.1463   12.7704 C.3     1  UNL1        0.0032
     27 C          64.6202   91.2496   13.8662 C.3     1  UNL1        0.0254
     28 C          63.5858   90.2046   13.5699 C.3     1  UNL1        0.1348
     29 C          63.0902   89.3080   14.6656 C.2     1  UNL1        0.2369
     30 O          61.7175   89.5088   15.2359 O.2     1  UNL1       -0.2737
     31 N          63.9674   88.2105   15.1911 N.am    1  UNL1       -0.3064
     32 H          64.8684   88.0787   14.8168 H       1  UNL1        0.1493
     33 C          63.4719   87.3139   16.2867 C.3     1  UNL1        0.0569
     34 C          63.7750   86.1128   15.4409 C.3     1  UNL1        0.0196
     35 C          63.1688   88.5150   17.1325 C.3     1  UNL1        0.0196
     36 C          62.9764   86.4173   17.3824 C.3     1  UNL1        0.0196
     37 C          60.5695   87.3271    9.4879 C.3     1  UNL1        0.0842
     38 S          61.7918   86.5976    9.0148 S.3     1  UNL1       -0.1118
     39 C          62.3979   85.5201    9.8643 C.ar    1  UNL1        0.0253
     40 C          62.0862   85.4563   11.3302 C.ar    1  UNL1        0.0061
     41 C          62.6923   84.3788   12.1797 C.ar    1  UNL1        0.0005
     42 C          63.6101   83.3650   11.5632 C.ar    1  UNL1        0.0000
     43 C          63.9217   83.4288   10.0973 C.ar    1  UNL1        0.0005
     44 C          63.3156   84.5063    9.2479 C.ar    1  UNL1        0.0061
@<TRIPOS>BOND
     1     6     7    1
     2     7     8   ar
     3     8     9    1
     4     8    10   ar
     5    10    11   ar
     6    11    12   ar
     7    12    13   ar
     8    13     2    1
     9     2     3    2
    10     2     4   am
    11     4     1    1
    12     1    37    1
    13    37    38    1
    14    38    39    1
    15    39    40   ar
    16    40    41   ar
    17    41    42   ar
    18    42    43   ar
    19    43    44   ar
    20     1    15    1
    21    15    16    1
    22    15    18    1
    23    18    19    1
    24    19    20    1
    25    21    20    1
    26    21    22    1
    27    22    23    1
    28    23    24    1
    29    24    25    1
    30    26    25    1
    31    26    27    1
    32    27    28    1
    33    28    29    1
    34    29    30    2
    35    29    31   am
    36    31    33    1
    37    33    34    1
    38    33    35    1
    39    33    36    1
    40    13     7   ar
    41    44    39   ar
    42    28    19    1
    43    26    21    1
    44     9    14    1
    45     4     5    1
    46    16    17    1
    47    31    32    1
@<TRIPOS>MOLECULE
*****
 44 47 0 0 0
SMALL
GASTEIGER

@<TRIPOS>ATOM
      1 C          62.9865   86.7259   12.6344 C.3     1  UNL1        0.1111
      2 C          63.2273   84.1527   12.3677 C.2     1  UNL1        0.2457
      3 O          64.2644   84.3600   11.3040 O.2     1  UNL1       -0.2702
      4 N          62.5884   85.3357   13.0329 N.am    1  UNL1       -0.2992
      5 H          61.9077   85.1996   13.7310 H       1  UNL1        0.1498
      6 C          63.5938   81.8785   10.4458 C.3     1  UNL1        0.0343
      7 C          63.0124   81.6255   11.8052 C.ar    1  UNL1        0.0162
      8 C          62.6142   80.2352   12.2037 C.ar    1  UNL1        0.1298
      9 O          62.7974   79.0981   11.2428 O.3     1  UNL1       -0.5058
     10 C          62.0329   79.9821   13.5631 C.ar    1  UNL1        0.0363
     11 C          61.8496   81.1193   14.5240 C.ar    1  UNL1        0.0032
     12 C          62.2478   82.5095   14.1255 C.ar    1  UNL1        0.0044
     13 C          62.8292   82.7626   12.7661 C.ar    1  UNL1        0.0523
     14 H          63.1606   79.2562   10.3936 H       1  UNL1        0.2922
     15 C          63.6125   87.6445   13.6415 C.3     1  UNL1        0.1451
     16 O          64.7533   87.1633   14.4884 O.3     1  UNL1       -0.3813
     17 H          65.0383   87.8757   15.0819 H       1  UNL1        0.2105
     18 C          63.0976   89.0442   13.8019 C.3     1  UNL1        0.1037
     19 N          64.0536   90.2001   13.7969 N.3     1  UNL1       -0.2644
     20 C          65.0151   90.3831   14.9336 C.3     1  UNL1        0.0725
     21 C          65.9711   91.5390   14.9287 C.3     1  UNL1        0.0161
     22 C          66.9325   91.7220   16.0654 C.3     1  UNL1        0.0014
     23 C          67.8884   92.8779   16.0604 C.3     1  UNL1        0.0000
     24 C          67.8829   93.8508   14.9188 C.3     1  UNL1        0.0000
     25 C          66.9215   93.6678   13.7821 C.3     1  UNL1        0.0001
     26 C          65.9656   92.5119   13.7870 C.3     1  UNL1        0.0032
     27 C          65.0041   92.3289   12.6503 C.3     1  UNL1        0.0254
     28 C          64.0481   91.1730   12.6553 C.3     1  UNL1        0.1348
     29 C          63.0866   90.9900   11.5185 C.2     1  UNL1        0.2369
     30 O          63.5046   91.3346   10.1198 O.2     1  UNL1       -0.2737
     31 N          61.7071   90.4625   11.7806 N.am    1  UNL1       -0.3064
     32 H          61.4328   90.2363   12.6987 H       1  UNL1        0.1493
     33 C          60.7457   90.2795   10.6440 C.3     1  UNL1        0.0569
     34 C          59.5964   90.5198   11.5774 C.3     1  UNL1        0.0196
     35 C          61.8949   90.0391    9.7105 C.3     1  UNL1        0.0196
     36 C          59.7842   90.0964    9.5073 C.3     1  UNL1        0.0196
     37 C          62.7588   87.1974   11.2288 C.3     1  UNL1        0.0842
     38 S          61.4829   86.8525   10.5194 S.3     1  UNL1       -0.1118
     39 C          61.5279   86.1685    9.1852 C.ar    1  UNL1        0.0253
     40 C          60.3037   86.1327    8.3191 C.ar    1  UNL1        0.0061
     41 C          60.3486   85.4486    6.9849 C.ar    1  UNL1        0.0005
     42 C          61.6178   84.8004    6.5168 C.ar    1  UNL1        0.0000
     43 C          62.8419   84.8363    7.3829 C.ar    1  UNL1        0.0005
     44 C          62.7970   85.5203    8.7171 C.ar    1  UNL1        0.0061
@<TRIPOS>BOND
     1     6     7    1
     2     7     8   ar
     3     8     9    1
     4     8    10   ar
     5    10    11   ar
     6    11    12   ar
     7    12    13   ar
     8    13     2    1
     9     2     3    2
    10     2     4   am
    11     4     1    1
    12     1    37    1
    13    37    38    1
    14    38    39    1
    15    39    40   ar
    16    40    41   ar
    17    41    42   ar
    18    42    43   ar
    19    43    44   ar
    20     1    15    1
    21    15    16    1
    22    15    18    1
    23    18    19    1
    24    19    20    1
    25    21    20    1
    26    21    22    1
    27    22    23    1
    28    23    24    1
    29    24    25    1
    30    26    25    1
    31    26    27    1
    32    27    28    1
    33    28    29    1
    34    29    30    2
    35    29    31   am
    36    31    33    1
    37    33    34    1
    38    33    35    1
    39    33    36    1
    40    13     7   ar
    41    44    39   ar
    42    28    19    1
    43    26    21    1
    44     9    14    1
    45     4     5    1
    46    16    17    1
    47    31    32    1
@<TRIPOS>MOLECULE
*****
 44 47 0 0 0
SMALL
GASTEIGER

@<TRIPOS>ATOM
      1 C          62.4406   86.2187   11.0886 C.3     1  UNL1        0.1111
      2 C          63.3049   83.7826   11.3505 C.2     1  UNL1        0.2457
      3 O          64.6964   84.2419   11.0299 O.2     1  UNL1       -0.2702
      4 N          62.1770   84.7711   11.3798 N.am    1  UNL1       -0.2992
      5 H          61.2637   84.4697   11.5902 H       1  UNL1        0.1498
      6 C          62.5175   82.9283   14.1163 C.3     1  UNL1        0.0343
      7 C          62.6476   81.9079   13.0247 C.ar    1  UNL1        0.0162
      8 C          62.3840   80.4602   13.3160 C.ar    1  UNL1        0.1298
      9 O          61.9903   80.0331   14.6989 O.3     1  UNL1       -0.5058
     10 C          62.5141   79.4397   12.2244 C.ar    1  UNL1        0.0363
     11 C          62.9078   79.8669   10.8414 C.ar    1  UNL1        0.0032
     12 C          63.1714   81.3145   10.5501 C.ar    1  UNL1        0.0044
     13 C          63.0413   82.3350   11.6418 C.ar    1  UNL1        0.0523
     14 H          61.9090   80.6705   15.3808 H       1  UNL1        0.2922
     15 C          62.9510   87.1209   12.1727 C.3     1  UNL1        0.1451
     16 O          64.0324   86.6454   13.0971 O.3     1  UNL1       -0.3813
     17 H          64.2442   87.3455   13.7342 H       1  UNL1        0.2105
     18 C          62.3800   88.4988   12.3325 C.3     1  UNL1        0.1037
     19 N          63.2875   89.6579   12.6207 N.3     1  UNL1       -0.2644
     20 C          63.8127   90.4974   11.4940 C.3     1  UNL1        0.0725
     21 C          64.7202   91.6565   11.7822 C.3     1  UNL1        0.0161
     22 C          65.2454   92.4960   10.6556 C.3     1  UNL1        0.0014
     23 C          66.1528   93.6551   10.9438 C.3     1  UNL1        0.0000
     24 C          66.5350   93.9746   12.3586 C.3     1  UNL1        0.0000
     25 C          66.0098   93.1352   13.4852 C.3     1  UNL1        0.0001
     26 C          65.1024   91.9761   13.1970 C.3     1  UNL1        0.0032
     27 C          64.5771   91.1365   14.3237 C.3     1  UNL1        0.0254
     28 C          63.6697   89.9775   14.0355 C.3     1  UNL1        0.1348
     29 C          63.1444   89.1379   15.1622 C.2     1  UNL1        0.2369
     30 O          61.8734   89.5263   15.8576 O.2     1  UNL1       -0.2737
     31 N          63.8902   87.9100   15.5933 N.am    1  UNL1       -0.3064
     32 H          64.7244   87.6550   15.1369 H       1  UNL1        0.1493
     33 C          63.3650   87.0704   16.7199 C.3     1  UNL1        0.0569
     34 C          62.9958   88.3133   17.4740 C.3     1  UNL1        0.0196
     35 C          63.7343   85.8275   15.9658 C.3     1  UNL1        0.0196
     36 C          62.8399   86.2309   17.8465 C.3     1  UNL1        0.0196
     37 C          62.1938   86.7640    9.7132 C.3     1  UNL1        0.0842
     38 S          60.8434   87.3091    9.3537 S.3     1  UNL1       -0.1118
     39 C          60.2283   88.3966   10.1837 C.ar    1  UNL1        0.0253
     40 C          59.3914   88.0461   11.3782 C.ar    1  UNL1        0.0061
     41 C          58.7763   89.1336   12.2082 C.ar    1  UNL1        0.0005
     42 C          58.9980   90.5717   11.8437 C.ar    1  UNL1        0.0000
     43 C          59.8349   90.9222   10.6493 C.ar    1  UNL1        0.0005
     44 C          60.4500   89.8346    9.8192 C.ar    1  UNL1        0.0061
@<TRIPOS>BOND
     1     6     7    1
     2     7     8   ar
     3     8     9    1
     4     8    10   ar
     5    10    11   ar
     6    11    12   ar
     7    12    13   ar
     8    13     2    1
     9     2     3    2
    10     2     4   am
    11     4     1    1
    12     1    37    1
    13    37    38    1
    14    38    39    1
    15    39    40   ar
    16    40    41   ar
    17    41    42   ar
    18    42    43   ar
    19    43    44   ar
    20     1    15    1
    21    15    16    1
    22    15    18    1
    23    18    19    1
    24    19    20    1
    25    21    20    1
    26    21    22    1
    27    22    23    1
    28    23    24    1
    29    24    25    1
    30    26    25    1
    31    26    27    1
    32    27    28    1
    33    28    29    1
    34    29    30    2
    35    29    31   am
    36    31    33    1
    37    33    34    1
    38    33    35    1
    39    33    36    1
    40    13     7   ar
    41    44    39   ar
    42    28    19    1
    43    26    21    1
    44     9    14    1
    45     4     5    1
    46    16    17    1
    47    31    32    1
