@<TRIPOS>MOLECULE
*****
 82 87 0 0 0
SMALL
GASTEIGER

@<TRIPOS>ATOM
      1 C          60.3677   87.7291    8.1997 C.1     1  UNL1       -0.0306
      2 C          59.8459   88.7660    7.2497 C.1     1  UNL1       -0.0105
      3 C          59.3240   89.8028    6.2996 C.1     1  UNL1       -0.0105
      4 C          58.8022   90.8397    5.3496 C.1     1  UNL1       -0.0306
      5 C          58.2804   91.8766    4.3995 C.3     1  UNL1        0.2837
      6 O          59.1726   92.9928    3.9436 O.3     1  UNL1       -0.4454
      7 C          60.4250   92.6864    3.1770 C.ar    1  UNL1        0.2286
      8 N          61.5846   92.0305    3.8661 N.ar    1  UNL1       -0.1893
      9 C          62.8370   91.7241    3.0995 C.ar    1  UNL1        0.2015
     10 N          62.9298   92.0737    1.6438 N.ar    1  UNL1       -0.2237
     11 C          61.7701   92.7297    0.9547 C.ar    1  UNL1        0.0906
     12 C          61.8629   93.0793   -0.5011 C.ar    1  UNL1        0.0575
     13 C          60.7033   93.7353   -1.1902 C.ar    1  UNL1        0.1535
     14 C          59.4509   94.0417   -0.4236 C.ar    1  UNL1        0.0850
     15 C          59.3582   93.6920    1.0321 C.ar    1  UNL1        0.0239
     16 C          60.5178   93.0361    1.7212 C.ar    1  UNL1        0.0723
     17 N          58.2912   94.6977   -1.1128 N.am    1  UNL1       -0.2802
     18 C          56.9473   94.0315   -1.1179 C.2     1  UNL1        0.2443
     19 O          56.7630   92.7093   -0.4339 O.2     1  UNL1       -0.2730
     20 H          58.4122   95.5655   -1.5617 H       1  UNL1        0.1550
     21 C          55.7877   94.6875   -1.8070 C.3     1  UNL1        0.1521
     22 C          54.6720   95.4342   -1.1379 C.3     1  UNL1        0.0310
     23 C          53.7349   95.9202   -2.2036 C.3     1  UNL1        0.0237
     24 C          54.2715   95.4740   -3.5314 C.3     1  UNL1        0.0939
     25 N          55.5402   94.7121   -3.2863 N.am    1  UNL1       -0.2717
     26 C          56.4088   94.0850   -4.3361 C.2     1  UNL1        0.2438
     27 O          57.6547   93.3505   -3.9381 O.2     1  UNL1       -0.2731
     28 C          56.0316   94.1923   -5.7839 C.3     1  UNL1        0.1487
     29 C          56.0748   95.5237   -6.4734 C.3     1  UNL1        0.0250
     30 C          54.5991   95.4395   -6.7285 C.3     1  UNL1        0.0021
     31 C          57.5505   95.6080   -6.2183 C.3     1  UNL1        0.0021
     32 C          56.1180   96.8551   -7.1630 C.3     1  UNL1        0.0021
     33 N          55.6112   92.9683   -6.5422 N.am    1  UNL1       -0.2973
     34 C          55.3890   91.6752   -5.8151 C.2     1  UNL1        0.2370
     35 O          55.5871   91.6062   -4.3299 O.2     1  UNL1       -0.2737
     36 H          55.4812   93.0135   -7.5170 H       1  UNL1        0.1499
     37 C          54.9686   90.4511   -6.5733 C.3     1  UNL1        0.1316
     38 C          53.6101   89.8574   -6.3455 C.3     1  UNL1        0.0270
     39 N          55.9068   89.8207   -7.5594 N.3     1  UNL1       -0.2902
     40 C          57.3589   90.1967   -7.5591 C.3     1  UNL1        0.0862
     41 H          55.5467   90.0378   -8.4887 H       1  UNL1        0.1237
     42 O          60.7960   94.0849   -2.6460 O.3     1  UNL1       -0.4701
     43 C          62.1261   94.0637   -3.3391 C.3     1  UNL1        0.2525
     44 C          60.8896   86.6923    9.1498 C.3     1  UNL1        0.2837
     45 O          62.3626   86.4201    9.2278 O.3     1  UNL1       -0.4454
     46 C          63.4041   86.7973   13.5894 C.ar    1  UNL1        0.0850
     47 C          63.0569   86.6716   12.1355 C.ar    1  UNL1        0.0239
     48 C          63.2129   85.3525   11.4385 C.ar    1  UNL1        0.0723
     49 C          62.8658   85.2267    9.9847 C.ar    1  UNL1        0.2286
     50 N          63.0217   83.9077    9.2877 N.ar    1  UNL1       -0.1893
     51 C          63.5249   82.7144   10.0445 C.ar    1  UNL1        0.2015
     52 N          63.8720   82.8402   11.4984 N.ar    1  UNL1       -0.2237
     53 C          63.7160   84.1592   12.1954 C.ar    1  UNL1        0.0906
     54 C          64.0632   84.2849   13.6492 C.ar    1  UNL1        0.0575
     55 C          63.9072   85.6039   14.3462 C.ar    1  UNL1        0.1535
     56 C          64.4415   88.7854   14.9013 C.2     1  UNL1        0.2443
     57 O          65.7908   88.1355   14.8192 O.2     1  UNL1       -0.2730
     58 N          63.2481   88.1163   14.2864 N.am    1  UNL1       -0.2802
     59 H          62.3624   88.5429   14.3402 H       1  UNL1        0.1550
     60 C          66.0631   91.5291   14.1998 C.2     1  UNL1        0.2438
     61 O          66.4308   90.3637   13.3299 O.2     1  UNL1       -0.2731
     62 N          65.0309   91.3656   15.2758 N.am    1  UNL1       -0.2717
     63 C          64.5627   92.4345   16.2184 C.3     1  UNL1        0.0939
     64 C          63.5281   91.8340   17.1233 C.3     1  UNL1        0.0237
     65 C          63.3567   90.3939   16.7401 C.3     1  UNL1        0.0310
     66 C          64.2854   90.1045   15.5983 C.3     1  UNL1        0.1521
     67 C          66.7276   92.8580   13.9938 C.3     1  UNL1        0.1487
     68 C          66.8803   93.5131   11.4843 C.2     1  UNL1        0.2370
     69 O          67.8709   92.4099   11.2567 O.2     1  UNL1       -0.2737
     70 N          66.3086   93.7371   12.8529 N.am    1  UNL1       -0.2973
     71 H          65.6584   94.4611   13.0023 H       1  UNL1        0.1499
     72 C          66.4614   94.3922   10.3434 C.3     1  UNL1        0.1316
     73 C          67.3681   94.5707    9.1619 C.3     1  UNL1        0.0270
     74 C          65.0120   96.4945    9.8645 C.3     1  UNL1        0.0862
     75 N          65.1357   95.0928   10.3840 N.3     1  UNL1       -0.2902
     76 H          64.4839   94.5210    9.8467 H       1  UNL1        0.1237
     77 C          67.8110   93.3077   14.9286 C.3     1  UNL1        0.0250
     78 C          68.2862   91.8910   15.0595 C.3     1  UNL1        0.0021
     79 C          67.3358   94.7245   14.7977 C.3     1  UNL1        0.0021
     80 C          68.8944   93.7575   15.8634 C.3     1  UNL1        0.0021
     81 O          64.2544   85.7296   15.8001 O.3     1  UNL1       -0.4701
     82 C          63.1654   85.8747   16.8214 C.3     1  UNL1        0.2525
@<TRIPOS>BOND
     1    74    75    1
     2    75    72    1
     3    72    73    1
     4    72    68    1
     5    68    69    2
     6    68    70   am
     7    67    70    1
     8    67    60    1
     9    60    61    2
    10    60    62   am
    11    62    63    1
    12    63    64    1
    13    64    65    1
    14    65    66    1
    15    66    56    1
    16    56    57    2
    17    56    58   am
    18    58    46    1
    19    46    47   ar
    20    47    48   ar
    21    48    49   ar
    22    49    45    1
    23    45    44    1
    24    44     1    1
    25     1     2    3
    26     2     3    1
    27     3     4    3
    28     4     5    1
    29     5     6    1
    30     6     7    1
    31     7     8   ar
    32     8     9   ar
    33     9    10   ar
    34    10    11   ar
    35    11    12   ar
    36    12    13   ar
    37    13    42    1
    38    42    43    1
    39    13    14   ar
    40    14    17    1
    41    17    18   am
    42    18    19    2
    43    21    18    1
    44    21    22    1
    45    22    23    1
    46    23    24    1
    47    24    25    1
    48    25    26   am
    49    26    27    2
    50    26    28    1
    51    28    33    1
    52    33    34   am
    53    34    35    2
    54    34    37    1
    55    37    38    1
    56    37    39    1
    57    39    40    1
    58    28    29    1
    59    29    30    1
    60    29    31    1
    61    29    32    1
    62    14    15   ar
    63    15    16   ar
    64    49    50   ar
    65    50    51   ar
    66    51    52   ar
    67    52    53   ar
    68    53    54   ar
    69    54    55   ar
    70    55    81    1
    71    81    82    1
    72    67    77    1
    73    77    78    1
    74    77    79    1
    75    77    80    1
    76    66    62    1
    77    55    46   ar
    78    53    48   ar
    79    16     7   ar
    80    16    11   ar
    81    25    21    1
    82    75    76    1
    83    70    71    1
    84    58    59    1
    85    17    20    1
    86    33    36    1
    87    39    41    1
@<TRIPOS>MOLECULE
*****
 82 87 0 0 0
SMALL
GASTEIGER

@<TRIPOS>ATOM
      1 C          61.5496   90.2873    8.8713 C.1     1  UNL1       -0.0306
      2 C          62.7480   90.9728    9.4578 C.1     1  UNL1       -0.0105
      3 C          63.9463   91.6583   10.0443 C.1     1  UNL1       -0.0105
      4 C          65.1447   92.3438   10.6309 C.1     1  UNL1       -0.0306
      5 C          66.3431   93.0293   11.2174 C.3     1  UNL1        0.2837
      6 O          67.2592   92.2802   12.1392 O.3     1  UNL1       -0.4454
      7 C          67.2153   92.5414   13.6156 C.ar    1  UNL1        0.2286
      8 N          68.2783   93.3802   14.2607 N.ar    1  UNL1       -0.1893
      9 C          68.2345   93.6414   15.7372 C.ar    1  UNL1        0.2015
     10 N          67.1275   93.0638   16.5685 N.ar    1  UNL1       -0.2237
     11 C          66.0644   92.2250   15.9232 C.ar    1  UNL1        0.0906
     12 C          64.9574   91.6474   16.7545 C.ar    1  UNL1        0.0575
     13 C          63.8943   90.8087   16.1093 C.ar    1  UNL1        0.1535
     14 C          63.9382   90.5475   14.6329 C.ar    1  UNL1        0.0850
     15 C          65.0452   91.1251   13.8017 C.ar    1  UNL1        0.0239
     16 C          66.1083   91.9638   14.4468 C.ar    1  UNL1        0.0723
     17 N          62.8751   89.7087   13.9877 N.am    1  UNL1       -0.2802
     18 C          62.0840   90.2555   12.8365 C.2     1  UNL1        0.2443
     19 O          62.3560   91.6412   12.3306 O.2     1  UNL1       -0.2730
     20 H          62.6966   88.7992   14.3197 H       1  UNL1        0.1550
     21 C          61.0210   89.4167   12.1914 C.3     1  UNL1        0.1521
     22 C          59.6000   89.8297   11.9459 C.3     1  UNL1        0.0310
     23 C          58.8930   88.6859   11.2812 C.3     1  UNL1        0.0237
     24 C          59.8770   87.5659   11.1158 C.3     1  UNL1        0.0939
     25 N          61.1922   88.0176   11.6784 N.am    1  UNL1       -0.2717
     26 C          62.4566   87.2116   11.7205 C.2     1  UNL1        0.2438
     27 O          63.7011   87.7992   12.3172 O.2     1  UNL1       -0.2731
     28 C          62.4765   85.8181   11.1659 C.3     1  UNL1        0.1487
     29 C          62.8391   85.5880    9.7287 C.3     1  UNL1        0.0250
     30 C          62.2245   86.9064    9.3625 C.3     1  UNL1        0.0021
     31 C          63.4537   84.2696   10.0948 C.3     1  UNL1        0.0021
     32 C          63.2017   85.3579    8.2915 C.3     1  UNL1        0.0021
     33 N          62.1338   84.6546   12.0485 N.am    1  UNL1       -0.2973
     34 C          62.9843   84.3447   13.2445 C.2     1  UNL1        0.2370
     35 O          64.1773   85.1980   13.5580 O.2     1  UNL1       -0.2737
     36 H          61.3508   84.0945   11.8427 H       1  UNL1        0.1499
     37 C          62.6417   83.1812   14.1272 C.3     1  UNL1        0.1316
     38 C          62.5818   83.3607   15.6152 C.3     1  UNL1        0.0270
     39 N          62.3589   81.8383   13.5218 N.3     1  UNL1       -0.2902
     40 C          61.1542   81.0578   13.9573 C.3     1  UNL1        0.0862
     41 H          63.1728   81.2531   13.7103 H       1  UNL1        0.1237
     42 O          62.7873   90.2311   16.9405 O.3     1  UNL1       -0.4701
     43 C          62.7563   88.7597   17.2303 C.3     1  UNL1        0.2525
     44 C          60.3512   89.6018    8.2848 C.3     1  UNL1        0.2837
     45 O          60.1761   89.5405    6.7963 O.3     1  UNL1       -0.4454
     46 C          60.3534   92.4280    3.3495 C.ar    1  UNL1        0.0850
     47 C          60.2943   91.4655    4.4984 C.ar    1  UNL1        0.0239
     48 C          58.9668   91.0012    5.0203 C.ar    1  UNL1        0.0723
     49 C          58.9077   90.0387    6.1692 C.ar    1  UNL1        0.2286
     50 N          57.5803   89.5743    6.6911 N.ar    1  UNL1       -0.1893
     51 C          56.3120   90.0725    6.0641 C.ar    1  UNL1        0.2015
     52 N          56.3712   91.0350    4.9151 N.ar    1  UNL1       -0.2237
     53 C          57.6985   91.4994    4.3932 C.ar    1  UNL1        0.0906
     54 C          57.7576   92.4619    3.2443 C.ar    1  UNL1        0.0575
     55 C          59.0850   92.9262    2.7224 C.ar    1  UNL1        0.1535
     56 C          62.1269   92.4937    1.4521 C.2     1  UNL1        0.2443
     57 O          61.2457   91.6308    0.5984 O.2     1  UNL1       -0.2730
     58 N          61.6808   92.8923    2.8276 N.am    1  UNL1       -0.2802
     59 H          62.2592   93.4587    3.3879 H       1  UNL1        0.1550
     60 C          62.6434   94.0302   -1.3803 C.2     1  UNL1        0.2438
     61 O          61.2055   93.6873   -1.1256 O.2     1  UNL1       -0.2731
     62 N          63.6917   93.6643   -0.3717 N.am    1  UNL1       -0.2717
     63 C          65.1616   93.9405   -0.4880 C.3     1  UNL1        0.0939
     64 C          65.8325   93.4049    0.7421 C.3     1  UNL1        0.0237
     65 C          64.7774   92.7978    1.6185 C.3     1  UNL1        0.0310
     66 C          63.4544   92.9581    0.9302 C.3     1  UNL1        0.1521
     67 C          63.0330   94.7389   -2.6435 C.3     1  UNL1        0.1487
     68 C          61.0684   95.0534   -4.3141 C.2     1  UNL1        0.2370
     69 O          60.4502   96.0662   -3.3965 O.2     1  UNL1       -0.2737
     70 N          62.3598   94.3897   -3.9377 N.am    1  UNL1       -0.2973
     71 H          62.7655   93.7249   -4.5399 H       1  UNL1        0.1499
     72 C          60.3950   94.7042   -5.6082 C.3     1  UNL1        0.1316
     73 C          61.1234   94.8888   -6.9064 C.3     1  UNL1        0.0270
     74 C          57.9776   94.7375   -4.6569 C.3     1  UNL1        0.0862
     75 N          58.9932   94.1705   -5.6041 N.3     1  UNL1       -0.2902
     76 H          58.6245   94.3041   -6.5457 H       1  UNL1        0.1237
     77 C          64.0960   95.7969   -2.6127 C.3     1  UNL1        0.0250
     78 C          64.8750   95.0444   -3.6504 C.3     1  UNL1        0.0021
     79 C          63.3169   96.5494   -1.5750 C.3     1  UNL1        0.0021
     80 C          65.1589   96.8548   -2.5818 C.3     1  UNL1        0.0021
     81 O          59.1441   93.8887    1.5735 O.3     1  UNL1       -0.4701
     82 C          58.4929   93.5394    0.2682 C.3     1  UNL1        0.2525
@<TRIPOS>BOND
     1    74    75    1
     2    75    72    1
     3    72    73    1
     4    72    68    1
     5    68    69    2
     6    68    70   am
     7    67    70    1
     8    67    60    1
     9    60    61    2
    10    60    62   am
    11    62    63    1
    12    63    64    1
    13    64    65    1
    14    65    66    1
    15    66    56    1
    16    56    57    2
    17    56    58   am
    18    58    46    1
    19    46    47   ar
    20    47    48   ar
    21    48    49   ar
    22    49    45    1
    23    45    44    1
    24    44     1    1
    25     1     2    3
    26     2     3    1
    27     3     4    3
    28     4     5    1
    29     5     6    1
    30     6     7    1
    31     7     8   ar
    32     8     9   ar
    33     9    10   ar
    34    10    11   ar
    35    11    12   ar
    36    12    13   ar
    37    13    42    1
    38    42    43    1
    39    13    14   ar
    40    14    17    1
    41    17    18   am
    42    18    19    2
    43    21    18    1
    44    21    22    1
    45    22    23    1
    46    23    24    1
    47    24    25    1
    48    25    26   am
    49    26    27    2
    50    26    28    1
    51    28    33    1
    52    33    34   am
    53    34    35    2
    54    34    37    1
    55    37    38    1
    56    37    39    1
    57    39    40    1
    58    28    29    1
    59    29    30    1
    60    29    31    1
    61    29    32    1
    62    14    15   ar
    63    15    16   ar
    64    49    50   ar
    65    50    51   ar
    66    51    52   ar
    67    52    53   ar
    68    53    54   ar
    69    54    55   ar
    70    55    81    1
    71    81    82    1
    72    67    77    1
    73    77    78    1
    74    77    79    1
    75    77    80    1
    76    66    62    1
    77    55    46   ar
    78    53    48   ar
    79    16     7   ar
    80    16    11   ar
    81    25    21    1
    82    75    76    1
    83    70    71    1
    84    58    59    1
    85    17    20    1
    86    33    36    1
    87    39    41    1
