@<TRIPOS>MOLECULE
*****
 20 23 0 0 0
SMALL
GASTEIGER

@<TRIPOS>ATOM
      1 C          64.3953   90.1804   13.9998 C.3     1  UNL1        0.1119
      2 C          63.8478   90.3847   12.6183 C.ar    1  UNL1       -0.0002
      3 C          62.8558   89.6057   11.8065 C.ar    1  UNL1       -0.0024
      4 C          62.4953   90.0618   10.4238 C.ar    1  UNL1       -0.0003
      5 C          63.1267   91.2968    9.8529 C.ar    1  UNL1        0.0000
      6 C          64.1187   92.0758   10.6647 C.ar    1  UNL1        0.0012
      7 C          64.4792   91.6197   12.0475 C.ar    1  UNL1        0.0152
      8 C          65.4170   92.1787   13.0761 C.ar    1  UNL1        0.0804
      9 C          66.3869   93.2875   13.3590 C.ar    1  UNL1        0.1177
     10 N          66.9344   93.0831   14.7405 N.ar    1  UNL1       -0.2223
     11 C          66.3029   91.8481   15.3114 C.ar    1  UNL1        0.1788
     12 N          65.3652   91.2891   14.2828 N.ar    1  UNL1       -0.3069
     13 O          63.0522   90.7845   16.6135 O.3     1  UNL1       -0.3818
     14 C          63.3645   89.3653   16.2410 C.3     1  UNL1        0.1421
     15 C          63.0053   88.2483   17.1755 C.3     1  UNL1        0.1712
     16 O          63.3176   86.8292   16.8032 O.3     1  UNL1       -0.3512
     17 C          63.9892   86.5272   15.4964 C.3     1  UNL1        0.1424
     18 C          64.3484   87.6442   14.5619 C.3     1  UNL1        0.0368
     19 C          64.0361   89.0634   14.9343 C.3     1  UNL1        0.0569
     20 H          62.6220   90.8034   17.4827 H       1  UNL1        0.2104
@<TRIPOS>BOND
     1    14    13    1
     2    14    15    1
     3    15    16    1
     4    16    17    1
     5    17    18    1
     6    19    18    1
     7    19     1    1
     8     1     2    1
     9     2     3   ar
    10     3     4   ar
    11     4     5   ar
    12     5     6   ar
    13     6     7   ar
    14     7     8    1
    15     8     9   ar
    16     9    10   ar
    17    10    11   ar
    18    11    12   ar
    19    19    14    1
    20     1    12    1
    21     7     2   ar
    22    12     8   ar
    23    13    20    1
@<TRIPOS>MOLECULE
*****
 20 23 0 0 0
SMALL
GASTEIGER

@<TRIPOS>ATOM
      1 C          65.8595   92.9568   11.9025 C.3     1  UNL1        0.1119
      2 C          64.7345   91.9927   11.6682 C.ar    1  UNL1       -0.0002
      3 C          63.9862   91.6059   10.4271 C.ar    1  UNL1       -0.0024
      4 C          62.8846   90.5905   10.5014 C.ar    1  UNL1       -0.0003
      5 C          62.5313   89.9620   11.8167 C.ar    1  UNL1        0.0000
      6 C          63.2796   90.3488   13.0578 C.ar    1  UNL1        0.0012
      7 C          64.3812   91.3641   12.9836 C.ar    1  UNL1        0.0152
      8 C          65.2879   91.9398   14.0308 C.ar    1  UNL1        0.0804
      9 C          65.6298   91.9072   15.4910 C.ar    1  UNL1        0.1177
     10 N          66.7548   92.8713   15.7252 N.ar    1  UNL1       -0.2223
     11 C          67.1081   93.4999   14.4098 C.ar    1  UNL1        0.1788
     12 N          66.2015   92.9242   13.3626 N.ar    1  UNL1       -0.3069
     13 O          65.6581   95.9466   12.0472 O.3     1  UNL1       -0.3818
     14 C          66.4248   95.2995   10.9320 C.3     1  UNL1        0.1421
     15 C          67.0909   96.1474    9.8892 C.3     1  UNL1        0.1712
     16 O          67.8576   95.5005    8.7740 O.3     1  UNL1       -0.3512
     17 C          67.9583   94.0057    8.7017 C.3     1  UNL1        0.1424
     18 C          67.2922   93.1577    9.7445 C.3     1  UNL1        0.0368
     19 C          66.5255   93.8047   10.8597 C.3     1  UNL1        0.0569
     20 H          65.6919   96.9107   11.9459 H       1  UNL1        0.2104
@<TRIPOS>BOND
     1    14    13    1
     2    14    15    1
     3    15    16    1
     4    16    17    1
     5    17    18    1
     6    19    18    1
     7    19     1    1
     8     1     2    1
     9     2     3   ar
    10     3     4   ar
    11     4     5   ar
    12     5     6   ar
    13     6     7   ar
    14     7     8    1
    15     8     9   ar
    16     9    10   ar
    17    10    11   ar
    18    11    12   ar
    19    19    14    1
    20     1    12    1
    21     7     2   ar
    22    12     8   ar
    23    13    20    1
@<TRIPOS>MOLECULE
*****
 20 23 0 0 0
SMALL
GASTEIGER

@<TRIPOS>ATOM
      1 C          64.1325   89.8582   13.7818 C.3     1  UNL1        0.1119
      2 C          65.0447   91.0385   13.9395 C.ar    1  UNL1       -0.0002
      3 C          65.9513   91.4642   15.0560 C.ar    1  UNL1       -0.0024
      4 C          66.7606   92.7206   14.9273 C.ar    1  UNL1       -0.0003
      5 C          66.6632   93.5513   13.6821 C.ar    1  UNL1        0.0000
      6 C          65.7565   93.1256   12.5656 C.ar    1  UNL1        0.0012
      7 C          64.9472   91.8692   12.6943 C.ar    1  UNL1        0.0152
      8 C          63.9749   91.2022   11.7671 C.ar    1  UNL1        0.0804
      9 C          63.3138   91.3034   10.4243 C.ar    1  UNL1        0.1177
     10 N          62.4016   90.1230   10.2667 N.ar    1  UNL1       -0.2223
     11 C          62.4990   89.2924   11.5119 C.ar    1  UNL1        0.1788
     12 N          63.4714   89.9593   12.4392 N.ar    1  UNL1       -0.3069
     13 O          62.9287   90.5004   16.4536 O.3     1  UNL1       -0.3818
     14 C          63.3172   89.0891   16.1256 C.3     1  UNL1        0.1421
     15 C          63.1037   87.9990   17.1336 C.3     1  UNL1        0.1712
     16 O          63.4921   86.5878   16.8058 O.3     1  UNL1       -0.3512
     17 C          64.0940   86.2666   15.4699 C.3     1  UNL1        0.1424
     18 C          64.3075   87.3568   14.4619 C.3     1  UNL1        0.0368
     19 C          63.9190   88.7681   14.7898 C.3     1  UNL1        0.0569
     20 H          62.5579   90.5339   17.3493 H       1  UNL1        0.2104
@<TRIPOS>BOND
     1    14    13    1
     2    14    15    1
     3    15    16    1
     4    16    17    1
     5    17    18    1
     6    19    18    1
     7    19     1    1
     8     1     2    1
     9     2     3   ar
    10     3     4   ar
    11     4     5   ar
    12     5     6   ar
    13     6     7   ar
    14     7     8    1
    15     8     9   ar
    16     9    10   ar
    17    10    11   ar
    18    11    12   ar
    19    19    14    1
    20     1    12    1
    21     7     2   ar
    22    12     8   ar
    23    13    20    1
@<TRIPOS>MOLECULE
*****
 20 23 0 0 0
SMALL
GASTEIGER

@<TRIPOS>ATOM
      1 C          62.8354   85.1980   11.7334 C.3     1  UNL1        0.1119
      2 C          62.9793   83.8141   12.2939 C.ar    1  UNL1       -0.0002
      3 C          62.6414   82.4642   11.7338 C.ar    1  UNL1       -0.0024
      4 C          62.9036   81.2292   12.5437 C.ar    1  UNL1       -0.0003
      5 C          63.5038   81.3440   13.9136 C.ar    1  UNL1        0.0000
      6 C          63.8417   82.6939   14.4736 C.ar    1  UNL1        0.0012
      7 C          63.5795   83.9289   13.6638 C.ar    1  UNL1        0.0152
      8 C          63.8065   85.3838   13.9499 C.ar    1  UNL1        0.0804
      9 C          64.3177   86.3539   14.9735 C.ar    1  UNL1        0.1177
     10 N          64.1738   87.7378   14.4129 N.ar    1  UNL1       -0.2223
     11 C          63.5736   87.6230   13.0430 C.ar    1  UNL1        0.1788
     12 N          63.3466   86.1681   12.7569 N.ar    1  UNL1       -0.3069
     13 O          60.4561   87.0130   11.5216 O.3     1  UNL1       -0.3818
     14 C          61.0885   86.4574   10.2801 C.3     1  UNL1        0.1421
     15 C          60.5312   86.8094    8.9326 C.3     1  UNL1        0.1712
     16 O          61.1635   86.2538    7.6911 O.3     1  UNL1       -0.3512
     17 C          62.3531   85.3463    7.7969 C.3     1  UNL1        0.1424
     18 C          62.9104   84.9944    9.1444 C.3     1  UNL1        0.0368
     19 C          62.2781   85.5499   10.3860 C.3     1  UNL1        0.0569
     20 H          59.7049   87.5761   11.2776 H       1  UNL1        0.2104
@<TRIPOS>BOND
     1    14    13    1
     2    14    15    1
     3    15    16    1
     4    16    17    1
     5    17    18    1
     6    19    18    1
     7    19     1    1
     8     1     2    1
     9     2     3   ar
    10     3     4   ar
    11     4     5   ar
    12     5     6   ar
    13     6     7   ar
    14     7     8    1
    15     8     9   ar
    16     9    10   ar
    17    10    11   ar
    18    11    12   ar
    19    19    14    1
    20     1    12    1
    21     7     2   ar
    22    12     8   ar
    23    13    20    1
@<TRIPOS>MOLECULE
*****
 20 23 0 0 0
SMALL
GASTEIGER

@<TRIPOS>ATOM
      1 C          62.6299   86.1486   11.6852 C.3     1  UNL1        0.1119
      2 C          63.1691   87.2981   12.4839 C.ar    1  UNL1       -0.0002
      3 C          63.1578   88.7789   12.2454 C.ar    1  UNL1       -0.0024
      4 C          63.7894   89.7041   13.2429 C.ar    1  UNL1       -0.0003
      5 C          64.4323   89.1484   14.4790 C.ar    1  UNL1        0.0000
      6 C          64.4436   87.6675   14.7176 C.ar    1  UNL1        0.0012
      7 C          63.8120   86.7424   13.7200 C.ar    1  UNL1        0.0152
      8 C          63.6701   85.2495   13.6852 C.ar    1  UNL1        0.0804
      9 C          63.9797   83.9834   14.4276 C.ar    1  UNL1        0.1177
     10 N          63.4404   82.8340   13.6288 N.ar    1  UNL1       -0.2223
     11 C          62.7975   83.3897   12.3927 C.ar    1  UNL1        0.1788
     12 N          62.9395   84.8825   12.4276 N.ar    1  UNL1       -0.3069
     13 O          60.0272   87.6310   11.5145 O.3     1  UNL1       -0.3818
     14 C          60.6065   86.9890   10.2888 C.3     1  UNL1        0.1421
     15 C          59.8844   87.0883    8.9778 C.3     1  UNL1        0.1712
     16 O          60.4636   86.4464    7.7521 O.3     1  UNL1       -0.3512
     17 C          61.7649   85.7052    7.8373 C.3     1  UNL1        0.1424
     18 C          62.4870   85.6059    9.1484 C.3     1  UNL1        0.0368
     19 C          61.9078   86.2479   10.3742 C.3     1  UNL1        0.0569
     20 H          59.1901   88.0652   11.2872 H       1  UNL1        0.2104
@<TRIPOS>BOND
     1    14    13    1
     2    14    15    1
     3    15    16    1
     4    16    17    1
     5    17    18    1
     6    19    18    1
     7    19     1    1
     8     1     2    1
     9     2     3   ar
    10     3     4   ar
    11     4     5   ar
    12     5     6   ar
    13     6     7   ar
    14     7     8    1
    15     8     9   ar
    16     9    10   ar
    17    10    11   ar
    18    11    12   ar
    19    19    14    1
    20     1    12    1
    21     7     2   ar
    22    12     8   ar
    23    13    20    1
@<TRIPOS>MOLECULE
*****
 20 23 0 0 0
SMALL
GASTEIGER

@<TRIPOS>ATOM
      1 C          65.8073   92.8161   11.8208 C.3     1  UNL1        0.1119
      2 C          66.1295   92.7864   13.2855 C.ar    1  UNL1       -0.0002
      3 C          67.1843   93.4802   14.0954 C.ar    1  UNL1       -0.0024
      4 C          67.2646   93.2515   15.5756 C.ar    1  UNL1       -0.0003
      5 C          66.2902   92.3289   16.2459 C.ar    1  UNL1        0.0000
      6 C          65.2354   91.6351   15.4360 C.ar    1  UNL1        0.0012
      7 C          65.1551   91.8638   13.9558 C.ar    1  UNL1        0.0152
      8 C          64.2307   91.3234   12.9053 C.ar    1  UNL1        0.0804
      9 C          63.0571   90.4191   12.6705 C.ar    1  UNL1        0.1177
     10 N          62.7349   90.4488   11.2057 N.ar    1  UNL1       -0.2223
     11 C          63.7094   91.3714   10.5354 C.ar    1  UNL1        0.1788
     12 N          64.6338   91.9119   11.5858 N.ar    1  UNL1       -0.3069
     13 O          65.4946   95.7981   11.7179 O.3     1  UNL1       -0.3818
     14 C          66.3752   95.1015   10.7232 C.3     1  UNL1        0.1421
     15 C          67.0994   95.8959    9.6771 C.3     1  UNL1        0.1712
     16 O          67.9800   95.1995    8.6824 O.3     1  UNL1       -0.3512
     17 C          68.1364   93.7086    8.7338 C.3     1  UNL1        0.1424
     18 C          67.4122   92.9141    9.7799 C.3     1  UNL1        0.0368
     19 C          66.5315   93.6106   10.7747 C.3     1  UNL1        0.0569
     20 H          65.5047   96.7526   11.5460 H       1  UNL1        0.2104
@<TRIPOS>BOND
     1    14    13    1
     2    14    15    1
     3    15    16    1
     4    16    17    1
     5    17    18    1
     6    19    18    1
     7    19     1    1
     8     1     2    1
     9     2     3   ar
    10     3     4   ar
    11     4     5   ar
    12     5     6   ar
    13     6     7   ar
    14     7     8    1
    15     8     9   ar
    16     9    10   ar
    17    10    11   ar
    18    11    12   ar
    19    19    14    1
    20     1    12    1
    21     7     2   ar
    22    12     8   ar
    23    13    20    1
@<TRIPOS>MOLECULE
*****
 20 23 0 0 0
SMALL
GASTEIGER

@<TRIPOS>ATOM
      1 C          62.2808   86.3535   10.7678 C.3     1  UNL1        0.1119
      2 C          61.3039   86.7387    9.6967 C.ar    1  UNL1       -0.0002
      3 C          60.6349   85.9432    8.6152 C.ar    1  UNL1       -0.0024
      4 C          59.6837   86.6147    7.6696 C.ar    1  UNL1       -0.0003
      5 C          59.4016   88.0816    7.8053 C.ar    1  UNL1        0.0000
      6 C          60.0706   88.8771    8.8868 C.ar    1  UNL1        0.0012
      7 C          61.0218   88.2056    9.8325 C.ar    1  UNL1        0.0152
      8 C          61.8243   88.7270   10.9875 C.ar    1  UNL1        0.0804
      9 C          62.1458   89.9560   11.7853 C.ar    1  UNL1        0.1177
     10 N          63.1227   89.5707   12.8565 N.ar    1  UNL1       -0.2223
     11 C          63.4049   88.1037   12.7207 C.ar    1  UNL1        0.1788
     12 N          62.6024   87.5823   11.5656 N.ar    1  UNL1       -0.3069
     13 O          62.0459   85.0774   13.4728 O.3     1  UNL1       -0.3818
     14 C          62.7208   84.3424   12.3527 C.3     1  UNL1        0.1421
     15 C          63.2782   82.9693   12.5852 C.3     1  UNL1        0.1712
     16 O          63.9531   82.2343   11.4653 O.3     1  UNL1       -0.3512
     17 C          64.0705   82.8724   10.1128 C.3     1  UNL1        0.1424
     18 C          63.5131   84.2454    9.8803 C.3     1  UNL1        0.0368
     19 C          62.8382   84.9804   11.0003 C.3     1  UNL1        0.0569
     20 H          62.0553   84.5278   14.2720 H       1  UNL1        0.2104
@<TRIPOS>BOND
     1    14    13    1
     2    14    15    1
     3    15    16    1
     4    16    17    1
     5    17    18    1
     6    19    18    1
     7    19     1    1
     8     1     2    1
     9     2     3   ar
    10     3     4   ar
    11     4     5   ar
    12     5     6   ar
    13     6     7   ar
    14     7     8    1
    15     8     9   ar
    16     9    10   ar
    17    10    11   ar
    18    11    12   ar
    19    19    14    1
    20     1    12    1
    21     7     2   ar
    22    12     8   ar
    23    13    20    1
@<TRIPOS>MOLECULE
*****
 20 23 0 0 0
SMALL
GASTEIGER

@<TRIPOS>ATOM
      1 C          61.9140   86.6525   10.2768 C.3     1  UNL1        0.1119
      2 C          62.2308   87.9902   10.8769 C.ar    1  UNL1       -0.0002
      3 C          63.1580   88.4002   11.9823 C.ar    1  UNL1       -0.0024
      4 C          63.2677   89.8444   12.3723 C.ar    1  UNL1       -0.0003
      5 C          62.4501   90.8787   11.6568 C.ar    1  UNL1        0.0000
      6 C          61.5229   90.4687   10.5514 C.ar    1  UNL1        0.0012
      7 C          61.4132   89.0245   10.1614 C.ar    1  UNL1        0.0152
      8 C          60.5912   88.3259    9.1192 C.ar    1  UNL1        0.0804
      9 C          59.5778   88.5334    8.0328 C.ar    1  UNL1        0.1177
     10 N          59.2611   87.1955    7.4328 N.ar    1  UNL1       -0.2223
     11 C          60.0786   86.1613    8.1483 C.ar    1  UNL1        0.1788
     12 N          60.9007   86.8599    9.1905 N.ar    1  UNL1       -0.3069
     13 O          63.3750   84.9677    8.2700 O.3     1  UNL1       -0.3818
     14 C          63.2371   84.4957    9.6872 C.3     1  UNL1        0.1421
     15 C          63.8296   83.1812   10.1009 C.3     1  UNL1        0.1712
     16 O          63.6917   82.7091   11.5179 O.3     1  UNL1       -0.3512
     17 C          62.9612   83.5515   12.5213 C.3     1  UNL1        0.1424
     18 C          62.3687   84.8659   12.1077 C.3     1  UNL1        0.0368
     19 C          62.5066   85.3380   10.6905 C.3     1  UNL1        0.0569
     20 H          63.8705   84.3102    7.7571 H       1  UNL1        0.2104
@<TRIPOS>BOND
     1    14    13    1
     2    14    15    1
     3    15    16    1
     4    16    17    1
     5    17    18    1
     6    19    18    1
     7    19     1    1
     8     1     2    1
     9     2     3   ar
    10     3     4   ar
    11     4     5   ar
    12     5     6   ar
    13     6     7   ar
    14     7     8    1
    15     8     9   ar
    16     9    10   ar
    17    10    11   ar
    18    11    12   ar
    19    19    14    1
    20     1    12    1
    21     7     2   ar
    22    12     8   ar
    23    13    20    1
@<TRIPOS>MOLECULE
*****
 20 23 0 0 0
SMALL
GASTEIGER

@<TRIPOS>ATOM
      1 C          63.8084   89.4785   13.3572 C.3     1  UNL1        0.1119
      2 C          63.8687   87.9995   13.6002 C.ar    1  UNL1       -0.0002
      3 C          64.4819   87.1876   14.7023 C.ar    1  UNL1       -0.0024
      4 C          64.3806   85.6913   14.6771 C.ar    1  UNL1       -0.0003
      5 C          63.6661   85.0068   13.5497 C.ar    1  UNL1        0.0000
      6 C          63.0528   85.8187   12.4476 C.ar    1  UNL1        0.0012
      7 C          63.1542   87.3151   12.4728 C.ar    1  UNL1        0.0152
      8 C          62.6523   88.3710   11.5331 C.ar    1  UNL1        0.0804
      9 C          61.9004   88.6006   10.2555 C.ar    1  UNL1        0.1177
     10 N          61.8402   90.0796   10.0126 N.ar    1  UNL1       -0.2223
     11 C          62.5547   90.7641   11.1400 C.ar    1  UNL1        0.1788
     12 N          63.0566   89.7081   12.0797 N.ar    1  UNL1       -0.3069
     13 O          62.6809   89.9511   16.0968 O.3     1  UNL1       -0.3818
     14 C          63.8329   90.7776   15.6070 C.3     1  UNL1        0.1421
     15 C          64.4212   91.8403   16.4871 C.3     1  UNL1        0.1712
     16 O          65.5732   92.6668   15.9974 O.3     1  UNL1       -0.3512
     17 C          66.1369   92.4305   14.6276 C.3     1  UNL1        0.1424
     18 C          65.5487   91.3677   13.7475 C.3     1  UNL1        0.0368
     19 C          64.3966   90.5412   14.2373 C.3     1  UNL1        0.0569
     20 H          62.4412   90.2303   16.9944 H       1  UNL1        0.2104
@<TRIPOS>BOND
     1    14    13    1
     2    14    15    1
     3    15    16    1
     4    16    17    1
     5    17    18    1
     6    19    18    1
     7    19     1    1
     8     1     2    1
     9     2     3   ar
    10     3     4   ar
    11     4     5   ar
    12     5     6   ar
    13     6     7   ar
    14     7     8    1
    15     8     9   ar
    16     9    10   ar
    17    10    11   ar
    18    11    12   ar
    19    19    14    1
    20     1    12    1
    21     7     2   ar
    22    12     8   ar
    23    13    20    1
