@<TRIPOS>MOLECULE
*****
 36 39 0 0 0
SMALL
GASTEIGER

@<TRIPOS>ATOM
      1 C          64.3941   90.7666   13.9332 C.3     1  UNL1        0.1225
      2 O          63.8351   91.6682   12.8727 O.3     1  UNL1       -0.3559
      3 C          63.0446   91.0898   11.7367 C.3     1  UNL1        0.1441
      4 C          62.8130   89.6097   11.6612 C.3     1  UNL1        0.0589
      5 C          63.3719   88.7081   12.7217 C.3     1  UNL1        0.1466
      6 C          63.1403   87.2279   12.6462 C.ar    1  UNL1        0.0618
      7 C          62.3497   86.6495   11.5102 C.ar    1  UNL1        0.1407
      8 F          61.6646   87.2369   10.3120 F       1  UNL1       -0.2043
      9 C          62.1181   85.1695   11.4347 C.ar    1  UNL1        0.0319
     10 C          62.6771   84.2677   12.4952 C.ar    1  UNL1        0.0351
     11 C          63.4676   84.8462   13.6311 C.ar    1  UNL1        0.1737
     12 F          64.0266   83.9446   14.6916 F       1  UNL1       -0.2010
     13 C          63.6992   86.3263   13.7066 C.ar    1  UNL1        0.1655
     14 O          64.4898   86.9047   14.8426 O.3     1  UNL1       -0.4732
     15 C          64.7214   88.3848   14.9181 C.3     1  UNL1        0.2098
     16 C          64.1625   89.2865   13.8576 C.3     1  UNL1        0.0957
     17 S          62.5814   88.1297   11.5857 S.O2    1  UNL1        0.0094
     18 O          62.9791   87.7542   11.0058 O.2     1  UNL1       -0.1684
     19 O          61.1596   88.4676   11.9237 O.2     1  UNL1       -0.1684
     20 C          61.7908   87.5512   10.4497 C.ar    1  UNL1        0.1059
     21 C          60.2933   87.6388   10.4569 C.ar    1  UNL1        0.0192
     22 C          59.5028   87.0604    9.3209 C.ar    1  UNL1        0.0127
     23 C          60.2097   86.3944    8.1778 C.ar    1  UNL1        0.0578
     24 CL         59.4191   85.8159    7.0418 Cl      1  UNL1       -0.0822
     25 C          61.7071   86.3068    8.1706 C.ar    1  UNL1        0.0127
     26 C          62.4976   86.8852    9.3066 C.ar    1  UNL1        0.0192
     27 C          65.1846   91.3450   15.0691 C.3     1  UNL1        0.0550
     28 C          66.5156   91.9851   14.8073 C.3     1  UNL1        0.1534
     29 S          66.7196   92.8138   13.5738 S.O2    1  UNL1       -0.0085
     30 O          67.5556   91.7205   12.9774 O.2     1  UNL1       -0.1729
     31 O          65.8836   93.9072   14.1701 O.2     1  UNL1       -0.1729
     32 C          66.9236   93.6426   12.3403 C.3     1  UNL1        0.1681
     33 C          66.7760   93.0183   10.9844 C.3     1  UNL1        0.0978
     34 C          67.6145   94.7808    9.2696 C.3     1  UNL1        0.0897
     35 N          67.7040   93.4105    9.8731 N.3     1  UNL1       -0.2688
     36 C          68.7214   92.4324    9.3652 C.3     1  UNL1        0.0897
@<TRIPOS>BOND
     1    34    35    1
     2    35    36    1
     3    35    33    1
     4    33    32    1
     5    32    29    1
     6    29    30    2
     7    29    31    2
     8    29    28    1
     9    28    27    1
    10     1    27    1
    11     1     2    1
    12     2     3    1
    13     3     4    1
    14     4     5    1
    15     5    17    1
    16    17    18    2
    17    17    19    2
    18    17    20    1
    19    20    21   ar
    20    21    22   ar
    21    22    23   ar
    22    23    24    1
    23    23    25   ar
    24    25    26   ar
    25     5     6    1
    26     6     7   ar
    27     7     8    1
    28     7     9   ar
    29     9    10   ar
    30    10    11   ar
    31    11    12    1
    32    11    13   ar
    33    13    14    1
    34    14    15    1
    35    16    15    1
    36    16     1    1
    37    16     5    1
    38    26    20   ar
    39    13     6   ar
@<TRIPOS>MOLECULE
*****
 36 39 0 0 0
SMALL
GASTEIGER

@<TRIPOS>ATOM
      1 C          64.1339   90.6878   13.6885 C.3     1  UNL1        0.1225
      2 O          63.6065   91.5442   12.5757 O.3     1  UNL1       -0.3559
      3 C          62.8902   90.9133   11.4187 C.3     1  UNL1        0.1441
      4 C          62.7013   89.4259   11.3744 C.3     1  UNL1        0.0589
      5 C          63.2287   88.5695   12.4872 C.3     1  UNL1        0.1466
      6 C          63.0399   87.0821   12.4429 C.ar    1  UNL1        0.0618
      7 C          62.3236   86.4511   11.2859 C.ar    1  UNL1        0.1407
      8 F          61.6853   86.9862   10.0383 F       1  UNL1       -0.2043
      9 C          62.1347   84.9637   11.2416 C.ar    1  UNL1        0.0319
     10 C          62.6621   84.1072   12.3544 C.ar    1  UNL1        0.0351
     11 C          63.3784   84.7382   13.5115 C.ar    1  UNL1        0.1737
     12 F          63.9059   83.8818   14.6243 F       1  UNL1       -0.2010
     13 C          63.5673   86.2256   13.5557 C.ar    1  UNL1        0.1655
     14 O          64.2836   86.8566   14.7128 O.3     1  UNL1       -0.4732
     15 C          64.4725   88.3440   14.7571 C.3     1  UNL1        0.2098
     16 C          63.9450   89.2005   13.6442 C.3     1  UNL1        0.0957
     17 S          62.5124   87.9385   11.3301 S.O2    1  UNL1        0.0094
     18 O          62.8836   87.9206   10.6249 O.2     1  UNL1       -0.1684
     19 O          61.2019   87.4974   11.9114 O.2     1  UNL1       -0.1684
     20 C          61.7961   87.3076   10.1731 C.ar    1  UNL1        0.1059
     21 C          62.5657   86.5227    9.1523 C.ar    1  UNL1        0.0192
     22 C          61.8494   85.8917    7.9953 C.ar    1  UNL1        0.0127
     23 C          60.3635   86.0457    7.8589 C.ar    1  UNL1        0.0578
     24 CL         59.6472   85.4147    6.7019 Cl      1  UNL1       -0.0822
     25 C          59.5940   86.8305    8.8796 C.ar    1  UNL1        0.0127
     26 C          60.3103   87.4615   10.0367 C.ar    1  UNL1        0.0192
     27 C          64.8502   91.3188   14.8456 C.3     1  UNL1        0.0550
     28 C          66.2387   91.8567   14.6649 C.3     1  UNL1        0.1534
     29 S          66.5456   92.7701   13.5153 S.O2    1  UNL1       -0.0085
     30 O          67.3377   91.6782   12.8593 O.2     1  UNL1       -0.1729
     31 O          65.7534   93.8619   14.1713 O.2     1  UNL1       -0.1729
     32 C          66.8524   93.6834   12.3657 C.3     1  UNL1        0.1681
     33 C          66.6223   93.2202   10.9577 C.3     1  UNL1        0.0978
     34 C          68.6051   92.3853    9.5012 C.3     1  UNL1        0.0897
     35 N          67.6592   93.4772    9.9047 N.3     1  UNL1       -0.2688
     36 C          67.7502   94.8262    9.2552 C.3     1  UNL1        0.0897
@<TRIPOS>BOND
     1    34    35    1
     2    35    36    1
     3    35    33    1
     4    33    32    1
     5    32    29    1
     6    29    30    2
     7    29    31    2
     8    29    28    1
     9    28    27    1
    10     1    27    1
    11     1     2    1
    12     2     3    1
    13     3     4    1
    14     4     5    1
    15     5    17    1
    16    17    18    2
    17    17    19    2
    18    17    20    1
    19    20    21   ar
    20    21    22   ar
    21    22    23   ar
    22    23    24    1
    23    23    25   ar
    24    25    26   ar
    25     5     6    1
    26     6     7   ar
    27     7     8    1
    28     7     9   ar
    29     9    10   ar
    30    10    11   ar
    31    11    12    1
    32    11    13   ar
    33    13    14    1
    34    14    15    1
    35    16    15    1
    36    16     1    1
    37    16     5    1
    38    26    20   ar
    39    13     6   ar
@<TRIPOS>MOLECULE
*****
 36 39 0 0 0
SMALL
GASTEIGER

@<TRIPOS>ATOM
      1 C          63.9094   89.3015   14.2543 C.3     1  UNL1        0.1225
      2 O          64.5578   88.3013   15.1649 O.3     1  UNL1       -0.3559
      3 C          64.5200   86.8412   14.8233 C.3     1  UNL1        0.1441
      4 C          63.8338   86.3813   13.5713 C.3     1  UNL1        0.0589
      5 C          63.1855   87.3816   12.6607 C.3     1  UNL1        0.1466
      6 C          62.4993   86.9218   11.4086 C.ar    1  UNL1        0.0618
      7 C          62.4615   85.4616   11.0671 C.ar    1  UNL1        0.1407
      8 F          62.9895   84.2229   11.7280 F       1  UNL1       -0.2043
      9 C          61.7753   85.0018    9.8150 C.ar    1  UNL1        0.0319
     10 C          61.1269   86.0021    8.9044 C.ar    1  UNL1        0.0351
     11 C          61.1647   87.4622    9.2460 C.ar    1  UNL1        0.1737
     12 F          60.5164   88.4624    8.3354 F       1  UNL1       -0.2010
     13 C          61.8509   87.9220   10.4981 C.ar    1  UNL1        0.1655
     14 O          61.8887   89.3821   10.8396 O.3     1  UNL1       -0.4732
     15 C          62.5749   89.8420   12.0917 C.3     1  UNL1        0.2098
     16 C          63.2233   88.8417   13.0023 C.3     1  UNL1        0.0957
     17 S          63.1477   85.9215   12.3192 S.O2    1  UNL1        0.0094
     18 O          63.8418   85.5402   12.2284 O.2     1  UNL1       -0.1684
     19 O          61.6836   85.6031   12.2481 O.2     1  UNL1       -0.1684
     20 C          63.1099   84.4614   11.9777 C.ar    1  UNL1        0.1059
     21 C          63.9283   83.9369   10.8351 C.ar    1  UNL1        0.0192
     22 C          63.8905   82.4768   10.4936 C.ar    1  UNL1        0.0127
     23 C          63.0343   81.5411   11.2946 C.ar    1  UNL1        0.0578
     24 CL         62.9965   80.0810   10.9530 Cl      1  UNL1       -0.0822
     25 C          62.2159   82.0656   12.4370 C.ar    1  UNL1        0.0127
     26 C          62.2537   83.5257   12.7786 C.ar    1  UNL1        0.0192
     27 C          63.9472   90.7617   14.5959 C.3     1  UNL1        0.0550
     28 C          65.2525   91.4196   14.9324 C.3     1  UNL1        0.1534
     29 S          66.1636   91.8834   13.8347 S.O2    1  UNL1       -0.0085
     30 O          67.3511   91.4153   14.6226 O.2     1  UNL1       -0.1729
     31 O          64.9761   92.3514   13.0468 O.2     1  UNL1       -0.1729
     32 C          67.0746   92.3471   12.7370 C.3     1  UNL1        0.1681
     33 C          66.5343   93.1888   11.6192 C.3     1  UNL1        0.0978
     34 C          68.1678   92.2536    9.8284 C.3     1  UNL1        0.0897
     35 N          67.3398   93.3816   10.3686 N.3     1  UNL1       -0.2688
     36 C          67.3172   94.7024    9.6581 C.3     1  UNL1        0.0897
@<TRIPOS>BOND
     1    34    35    1
     2    35    36    1
     3    35    33    1
     4    33    32    1
     5    32    29    1
     6    29    30    2
     7    29    31    2
     8    29    28    1
     9    28    27    1
    10     1    27    1
    11     1     2    1
    12     2     3    1
    13     3     4    1
    14     4     5    1
    15     5    17    1
    16    17    18    2
    17    17    19    2
    18    17    20    1
    19    20    21   ar
    20    21    22   ar
    21    22    23   ar
    22    23    24    1
    23    23    25   ar
    24    25    26   ar
    25     5     6    1
    26     6     7   ar
    27     7     8    1
    28     7     9   ar
    29     9    10   ar
    30    10    11   ar
    31    11    12    1
    32    11    13   ar
    33    13    14    1
    34    14    15    1
    35    16    15    1
    36    16     1    1
    37    16     5    1
    38    26    20   ar
    39    13     6   ar
@<TRIPOS>MOLECULE
*****
 36 39 0 0 0
SMALL
GASTEIGER

@<TRIPOS>ATOM
      1 C          60.1561   88.5909    8.1820 C.3     1  UNL1        0.1225
      2 O          59.8092   87.2474    7.6123 O.3     1  UNL1       -0.3559
      3 C          60.3252   85.9997    8.2657 C.3     1  UNL1        0.1441
      4 C          61.1881   86.0954    9.4888 C.3     1  UNL1        0.0589
      5 C          61.5351   87.4389   10.0586 C.3     1  UNL1        0.1466
      6 C          62.3981   87.5347   11.2818 C.ar    1  UNL1        0.0618
      7 C          62.9141   86.2870   11.9352 C.ar    1  UNL1        0.1407
      8 F          62.7700   84.8225   11.6445 F       1  UNL1       -0.2043
      9 C          63.7770   86.3828   13.1583 C.ar    1  UNL1        0.0319
     10 C          64.1240   87.7263   13.7281 C.ar    1  UNL1        0.0351
     11 C          63.6080   88.9740   13.0747 C.ar    1  UNL1        0.1737
     12 F          63.9549   90.3175   13.6445 F       1  UNL1       -0.2010
     13 C          62.7450   88.8782   11.8515 C.ar    1  UNL1        0.1655
     14 O          62.2290   90.1259   11.1981 O.3     1  UNL1       -0.4732
     15 C          61.3661   90.0302    9.9750 C.3     1  UNL1        0.2098
     16 C          61.0191   88.6866    9.4052 C.3     1  UNL1        0.0957
     17 S          62.0511   86.1912   10.7120 S.O2    1  UNL1        0.0094
     18 O          62.6267   85.7844   10.3398 O.2     1  UNL1       -0.1684
     19 O          61.2518   86.0867   11.9770 O.2     1  UNL1       -0.1684
     20 C          62.5671   84.9435   11.3654 C.ar    1  UNL1        0.1059
     21 C          63.6776   84.1653   10.7241 C.ar    1  UNL1        0.0192
     22 C          64.1937   82.9176   11.3775 C.ar    1  UNL1        0.0127
     23 C          63.5991   82.4481   12.6722 C.ar    1  UNL1        0.0578
     24 CL         64.1151   81.2003   13.3256 Cl      1  UNL1       -0.0822
     25 C          62.4886   83.2262   13.3134 C.ar    1  UNL1        0.0127
     26 C          61.9726   84.4739   12.6600 C.ar    1  UNL1        0.0192
     27 C          59.6401   89.8386    7.5286 C.3     1  UNL1        0.0550
     28 C          58.7732   89.7427    6.3083 C.3     1  UNL1        0.1534
     29 S          58.7488   90.8668    5.3154 S.O2    1  UNL1       -0.0085
     30 O          60.2438   90.8062    5.2100 O.2     1  UNL1       -0.1729
     31 O          57.2537   90.9274    5.4208 O.2     1  UNL1       -0.1729
     32 C          58.7243   91.9909    4.3226 C.3     1  UNL1        0.1681
     33 C          59.9799   92.7551    4.0238 C.3     1  UNL1        0.0978
     34 C          61.9430   92.6692    2.3241 C.3     1  UNL1        0.0897
     35 N          60.4824   92.8503    2.6137 N.3     1  UNL1       -0.2688
     36 C          59.5244   93.1266    1.4931 C.3     1  UNL1        0.0897
@<TRIPOS>BOND
     1    34    35    1
     2    35    36    1
     3    35    33    1
     4    33    32    1
     5    32    29    1
     6    29    30    2
     7    29    31    2
     8    29    28    1
     9    28    27    1
    10     1    27    1
    11     1     2    1
    12     2     3    1
    13     3     4    1
    14     4     5    1
    15     5    17    1
    16    17    18    2
    17    17    19    2
    18    17    20    1
    19    20    21   ar
    20    21    22   ar
    21    22    23   ar
    22    23    24    1
    23    23    25   ar
    24    25    26   ar
    25     5     6    1
    26     6     7   ar
    27     7     8    1
    28     7     9   ar
    29     9    10   ar
    30    10    11   ar
    31    11    12    1
    32    11    13   ar
    33    13    14    1
    34    14    15    1
    35    16    15    1
    36    16     1    1
    37    16     5    1
    38    26    20   ar
    39    13     6   ar
