@<TRIPOS>MOLECULE
*****
 31 34 0 0 0
SMALL
GASTEIGER

@<TRIPOS>ATOM
      1 N          62.0544   86.7942   10.8072 N.pl3   1  UNL1       -0.2872
      2 N          63.7850   90.7083   12.1980 N.3     1  UNL1       -0.2689
      3 C          63.8589   89.4990   13.0825 C.3     1  UNL1        0.0741
      4 C          63.2820   88.1944   12.6189 C.3     1  UNL1        0.0375
      5 C          62.6313   88.0989   11.2708 C.3     1  UNL1        0.0800
      6 C          62.5574   89.3081   10.3863 C.3     1  UNL1        0.0375
      7 C          63.1343   90.6128   10.8499 C.3     1  UNL1        0.0741
      8 C          64.3619   92.0130   12.6616 C.3     1  UNL1        0.0988
      9 C          66.9041   92.3320   11.1009 C.3     1  UNL1        0.0307
     10 C          66.9525   92.1980   12.5942 C.ar    1  UNL1       -0.0245
     11 C          68.2720   92.2235   13.3070 C.ar    1  UNL1       -0.0045
     12 C          68.3205   92.0895   14.8003 C.ar    1  UNL1       -0.0003
     13 C          67.0495   91.9301   15.5806 C.ar    1  UNL1       -0.0003
     14 C          65.7300   91.9046   14.8677 C.ar    1  UNL1       -0.0032
     15 C          65.6815   92.0385   13.3745 C.ar    1  UNL1       -0.0101
     16 C          62.4730   85.5129   11.4654 C.ar    1  UNL1        0.0515
     17 C          63.1344   84.4359   10.6576 C.ar    1  UNL1        0.0148
     18 C          63.5529   83.1547   11.3157 C.ar    1  UNL1        0.0051
     19 C          63.3100   82.9505   12.7817 C.ar    1  UNL1        0.0715
     20 C          62.6486   84.0274   13.5896 C.ar    1  UNL1        0.0051
     21 C          62.2301   85.3087   12.9314 C.ar    1  UNL1        0.0148
     22 C          63.7286   81.6692   13.4400 C.3     1  UNL1        0.4186
     23 F          64.1471   80.3879   14.0981 F       1  UNL1       -0.1659
     24 F          63.3392   80.9087   12.2071 F       1  UNL1       -0.1659
     25 F          64.1180   82.4297   14.6728 F       1  UNL1       -0.1659
     26 C          61.0590   86.7707    9.6853 C.ar    1  UNL1        0.0710
     27 C          61.3428   85.9725    8.4474 C.ar    1  UNL1        0.0180
     28 C          60.3474   85.9490    7.3255 C.ar    1  UNL1        0.0220
     29 C          59.0681   86.7237    7.4416 C.ar    1  UNL1        0.0990
     30 N          58.7844   87.5219    8.6794 N.ar    1  UNL1       -0.2410
     31 C          59.7798   87.5454    9.8013 C.ar    1  UNL1        0.1136
@<TRIPOS>BOND
     1     9    10    1
     2    10    11   ar
     3    11    12   ar
     4    12    13   ar
     5    13    14   ar
     6    14    15   ar
     7    15     8    1
     8     8     2    1
     9     2     3    1
    10     3     4    1
    11     4     5    1
    12     5     1    1
    13     1    16    1
    14    16    17   ar
    15    17    18   ar
    16    18    19   ar
    17    19    22    1
    18    22    23    1
    19    22    24    1
    20    22    25    1
    21    19    20   ar
    22    20    21   ar
    23     1    26    1
    24    26    27   ar
    25    27    28   ar
    26    28    29   ar
    27    29    30   ar
    28    30    31   ar
    29     5     6    1
    30     6     7    1
    31    15    10   ar
    32     7     2    1
    33    21    16   ar
    34    31    26   ar
@<TRIPOS>MOLECULE
*****
 31 34 0 0 0
SMALL
GASTEIGER

@<TRIPOS>ATOM
      1 N          62.0673   86.7273   10.8667 N.pl3   1  UNL1       -0.2872
      2 N          63.7817   90.6121   12.3565 N.3     1  UNL1       -0.2689
      3 C          63.8923   89.3730   13.1946 C.3     1  UNL1        0.0741
      4 C          63.3209   88.0781   12.6980 C.3     1  UNL1        0.0375
      5 C          62.6388   88.0222   11.3633 C.3     1  UNL1        0.0800
      6 C          62.5282   89.2612   10.5251 C.3     1  UNL1        0.0375
      7 C          63.0997   90.5562   11.0217 C.3     1  UNL1        0.0741
      8 C          64.3532   91.9070   12.8531 C.3     1  UNL1        0.0988
      9 C          64.7209   91.8502   15.8299 C.3     1  UNL1        0.0307
     10 C          65.9174   91.9134   14.9275 C.ar    1  UNL1       -0.0245
     11 C          67.2978   91.9483   15.5135 C.ar    1  UNL1       -0.0045
     12 C          68.4943   92.0115   14.6111 C.ar    1  UNL1       -0.0003
     13 C          68.3105   92.0399   13.1227 C.ar    1  UNL1       -0.0003
     14 C          66.9301   92.0050   12.5367 C.ar    1  UNL1       -0.0032
     15 C          65.7336   91.9418   13.4391 C.ar    1  UNL1       -0.0101
     16 C          62.4734   85.4334   11.5077 C.ar    1  UNL1        0.0515
     17 C          63.1183   84.3583   10.6841 C.ar    1  UNL1        0.0148
     18 C          63.5244   83.0644   11.3251 C.ar    1  UNL1        0.0051
     19 C          63.2857   82.8457   12.7897 C.ar    1  UNL1        0.0715
     20 C          62.6408   83.9208   13.6133 C.ar    1  UNL1        0.0051
     21 C          62.2347   85.2147   12.9723 C.ar    1  UNL1        0.0148
     22 C          63.6918   81.5518   13.4308 C.3     1  UNL1        0.4186
     23 F          64.0979   80.2579   14.0719 F       1  UNL1       -0.1659
     24 F          64.1379   82.2976   14.6534 F       1  UNL1       -0.1659
     25 F          63.2456   80.8060   12.2083 F       1  UNL1       -0.1659
     26 C          61.0897   86.7263    9.7290 C.ar    1  UNL1        0.0710
     27 C          61.3970   85.9595    8.4768 C.ar    1  UNL1        0.0180
     28 C          60.4194   85.9585    7.3392 C.ar    1  UNL1        0.0220
     29 C          59.1345   86.7242    7.4536 C.ar    1  UNL1        0.0990
     30 N          58.8274   87.4909    8.7057 N.ar    1  UNL1       -0.2410
     31 C          59.8050   87.4919    9.8434 C.ar    1  UNL1        0.1136
@<TRIPOS>BOND
     1     9    10    1
     2    10    11   ar
     3    11    12   ar
     4    12    13   ar
     5    13    14   ar
     6    14    15   ar
     7    15     8    1
     8     8     2    1
     9     2     3    1
    10     3     4    1
    11     4     5    1
    12     5     1    1
    13     1    16    1
    14    16    17   ar
    15    17    18   ar
    16    18    19   ar
    17    19    22    1
    18    22    23    1
    19    22    24    1
    20    22    25    1
    21    19    20   ar
    22    20    21   ar
    23     1    26    1
    24    26    27   ar
    25    27    28   ar
    26    28    29   ar
    27    29    30   ar
    28    30    31   ar
    29     5     6    1
    30     6     7    1
    31    15    10   ar
    32     7     2    1
    33    21    16   ar
    34    31    26   ar
@<TRIPOS>MOLECULE
*****
 31 34 0 0 0
SMALL
GASTEIGER

@<TRIPOS>ATOM
      1 N          63.2470   89.4741   12.6654 N.pl3   1  UNL1       -0.2872
      2 N          65.6733   93.1802   11.8728 N.3     1  UNL1       -0.2689
      3 C          65.7450   92.5090   13.2124 C.3     1  UNL1        0.0741
      4 C          64.9363   91.2736   13.4765 C.3     1  UNL1        0.0375
      5 C          64.0558   90.7095   12.4012 C.3     1  UNL1        0.0800
      6 C          63.9840   91.3806   11.0617 C.3     1  UNL1        0.0375
      7 C          64.7927   92.6160   10.7975 C.3     1  UNL1        0.0741
      8 C          66.4820   94.4155   11.6086 C.3     1  UNL1        0.0988
      9 C          68.3364   93.5870    9.4007 C.3     1  UNL1        0.0307
     10 C          67.3321   94.6765    9.1674 C.ar    1  UNL1       -0.0245
     11 C          67.2549   95.3517    7.8302 C.ar    1  UNL1       -0.0045
     12 C          66.2506   96.4411    7.5970 C.ar    1  UNL1       -0.0003
     13 C          65.3234   96.8554    8.7009 C.ar    1  UNL1       -0.0003
     14 C          65.4006   96.1802   10.0381 C.ar    1  UNL1       -0.0032
     15 C          66.4049   95.0908   10.2713 C.ar    1  UNL1       -0.0101
     16 C          62.3529   88.9200   11.5959 C.ar    1  UNL1        0.0515
     17 C          62.5353   87.5083   11.1230 C.ar    1  UNL1        0.0148
     18 C          61.6413   86.9542   10.0536 C.ar    1  UNL1        0.0051
     19 C          60.5649   87.8118    9.4571 C.ar    1  UNL1        0.0715
     20 C          60.3825   89.2236    9.9301 C.ar    1  UNL1        0.0051
     21 C          61.2766   89.7777   10.9995 C.ar    1  UNL1        0.0148
     22 C          59.6708   87.2578    8.3877 C.3     1  UNL1        0.4186
     23 F          58.7768   86.7038    7.3183 F       1  UNL1       -0.1659
     24 F          59.1710   88.6402    8.0893 F       1  UNL1       -0.1659
     25 F          60.1706   85.8753    8.6860 F       1  UNL1       -0.1659
     26 C          63.3323   88.7928   13.9990 C.ar    1  UNL1        0.0710
     27 C          64.0702   87.4935   14.1316 C.ar    1  UNL1        0.0180
     28 C          64.1555   86.8122   15.4652 C.ar    1  UNL1        0.0220
     29 C          63.5029   87.4301   16.6662 C.ar    1  UNL1        0.0990
     30 N          62.7651   88.7293   16.5336 N.ar    1  UNL1       -0.2410
     31 C          62.6798   89.4106   15.2000 C.ar    1  UNL1        0.1136
@<TRIPOS>BOND
     1     9    10    1
     2    10    11   ar
     3    11    12   ar
     4    12    13   ar
     5    13    14   ar
     6    14    15   ar
     7    15     8    1
     8     8     2    1
     9     2     3    1
    10     3     4    1
    11     4     5    1
    12     5     1    1
    13     1    16    1
    14    16    17   ar
    15    17    18   ar
    16    18    19   ar
    17    19    22    1
    18    22    23    1
    19    22    24    1
    20    22    25    1
    21    19    20   ar
    22    20    21   ar
    23     1    26    1
    24    26    27   ar
    25    27    28   ar
    26    28    29   ar
    27    29    30   ar
    28    30    31   ar
    29     5     6    1
    30     6     7    1
    31    15    10   ar
    32     7     2    1
    33    21    16   ar
    34    31    26   ar
@<TRIPOS>MOLECULE
*****
 31 34 0 0 0
SMALL
GASTEIGER

@<TRIPOS>ATOM
      1 N          63.3153   89.1942   12.6975 N.pl3   1  UNL1       -0.2872
      2 N          63.9814   84.9618   14.0733 N.3     1  UNL1       -0.2689
      3 C          63.2021   85.2291   12.8198 C.3     1  UNL1        0.0741
      4 C          62.9800   86.6399   12.3612 C.3     1  UNL1        0.0375
      5 C          63.5373   87.7834   13.1561 C.3     1  UNL1        0.0800
      6 C          64.3166   87.5162   14.4095 C.3     1  UNL1        0.0375
      7 C          64.5387   86.1053   14.8682 C.3     1  UNL1        0.0741
      8 C          64.2035   83.5510   14.5319 C.3     1  UNL1        0.0988
      9 C          64.9221   82.1006   12.0060 C.3     1  UNL1        0.0307
     10 C          63.6812   81.7242   12.7599 C.ar    1  UNL1       -0.0245
     11 C          62.7996   80.6225   12.2509 C.ar    1  UNL1       -0.0045
     12 C          61.5586   80.2461   13.0048 C.ar    1  UNL1       -0.0003
     13 C          61.1993   80.9712   14.2678 C.ar    1  UNL1       -0.0003
     14 C          62.0809   82.0729   14.7768 C.ar    1  UNL1       -0.0032
     15 C          63.3219   82.4493   14.0228 C.ar    1  UNL1       -0.0101
     16 C          64.2173   90.2908   13.1811 C.ar    1  UNL1        0.0515
     17 C          64.5940   91.4131   12.2599 C.ar    1  UNL1        0.0148
     18 C          65.4960   92.5097   12.7434 C.ar    1  UNL1        0.0051
     19 C          66.0214   92.4840   14.1481 C.ar    1  UNL1        0.0715
     20 C          65.6447   91.3617   15.0693 C.ar    1  UNL1        0.0051
     21 C          64.7427   90.2651   14.5858 C.ar    1  UNL1        0.0148
     22 C          66.9234   93.5806   14.6317 C.3     1  UNL1        0.4186
     23 F          67.8254   94.6772   15.1152 F       1  UNL1       -0.1659
     24 F          66.4609   94.4574   13.5060 F       1  UNL1       -0.1659
     25 F          67.3860   92.7038   15.7574 F       1  UNL1       -0.1659
     26 C          62.1912   89.5085   11.7554 C.ar    1  UNL1        0.0710
     27 C          62.3733   89.3139   10.2792 C.ar    1  UNL1        0.0180
     28 C          61.2492   89.6282    9.3370 C.ar    1  UNL1        0.0220
     29 C          59.9430   90.1370    9.8710 C.ar    1  UNL1        0.0990
     30 N          59.7610   90.3315   11.3472 N.ar    1  UNL1       -0.2410
     31 C          60.8851   90.0172   12.2893 C.ar    1  UNL1        0.1136
@<TRIPOS>BOND
     1     9    10    1
     2    10    11   ar
     3    11    12   ar
     4    12    13   ar
     5    13    14   ar
     6    14    15   ar
     7    15     8    1
     8     8     2    1
     9     2     3    1
    10     3     4    1
    11     4     5    1
    12     5     1    1
    13     1    16    1
    14    16    17   ar
    15    17    18   ar
    16    18    19   ar
    17    19    22    1
    18    22    23    1
    19    22    24    1
    20    22    25    1
    21    19    20   ar
    22    20    21   ar
    23     1    26    1
    24    26    27   ar
    25    27    28   ar
    26    28    29   ar
    27    29    30   ar
    28    30    31   ar
    29     5     6    1
    30     6     7    1
    31    15    10   ar
    32     7     2    1
    33    21    16   ar
    34    31    26   ar
@<TRIPOS>MOLECULE
*****
 31 34 0 0 0
SMALL
GASTEIGER

@<TRIPOS>ATOM
      1 N          63.1364   89.2217   12.6594 N.pl3   1  UNL1       -0.2872
      2 N          63.8101   84.8470   13.4707 N.3     1  UNL1       -0.2689
      3 C          62.9836   85.2729   12.2936 C.3     1  UNL1        0.0741
      4 C          62.7590   86.7311   12.0231 C.3     1  UNL1        0.0375
      5 C          63.3609   87.7635   12.9298 C.3     1  UNL1        0.0800
      6 C          64.1874   87.3376   14.1069 C.3     1  UNL1        0.0375
      7 C          64.4120   85.8793   14.3773 C.3     1  UNL1        0.0741
      8 C          64.0346   83.3888   13.7411 C.3     1  UNL1        0.0988
      9 C          62.2239   81.0867   14.3906 C.3     1  UNL1        0.0307
     10 C          62.8021   81.2206   13.0130 C.ar    1  UNL1       -0.0245
     11 C          62.4750   80.2036   11.9601 C.ar    1  UNL1       -0.0045
     12 C          63.0533   80.3375   10.5826 C.ar    1  UNL1       -0.0003
     13 C          63.9586   81.4885   10.2578 C.ar    1  UNL1       -0.0003
     14 C          64.2857   82.5056   11.3107 C.ar    1  UNL1       -0.0032
     15 C          63.7075   82.3716   12.6883 C.ar    1  UNL1       -0.0101
     16 C          64.0715   90.2438   13.2345 C.ar    1  UNL1        0.0515
     17 C          64.4121   90.2111   14.6949 C.ar    1  UNL1        0.0148
     18 C          65.3472   91.2332   15.2701 C.ar    1  UNL1        0.0051
     19 C          65.9418   92.2881   14.3847 C.ar    1  UNL1        0.0715
     20 C          65.6012   92.3208   12.9243 C.ar    1  UNL1        0.0051
     21 C          64.6661   91.2986   12.3492 C.ar    1  UNL1        0.0148
     22 C          66.8769   93.3102   14.9599 C.3     1  UNL1        0.4186
     23 F          67.8120   94.3324   15.5349 F       1  UNL1       -0.1659
     24 F          66.5514   94.2430   13.8312 F       1  UNL1       -0.1659
     25 F          67.2025   92.3774   16.0885 F       1  UNL1       -0.1659
     26 C          61.9767   89.6578   11.8138 C.ar    1  UNL1        0.0710
     27 C          62.1419   89.7992   10.3296 C.ar    1  UNL1        0.0180
     28 C          60.9822   90.2353    9.4841 C.ar    1  UNL1        0.0220
     29 C          59.6573   90.5300   10.1228 C.ar    1  UNL1        0.0990
     30 N          59.4921   90.3885   11.6069 N.ar    1  UNL1       -0.2410
     31 C          60.6518   89.9524   12.4524 C.ar    1  UNL1        0.1136
@<TRIPOS>BOND
     1     9    10    1
     2    10    11   ar
     3    11    12   ar
     4    12    13   ar
     5    13    14   ar
     6    14    15   ar
     7    15     8    1
     8     8     2    1
     9     2     3    1
    10     3     4    1
    11     4     5    1
    12     5     1    1
    13     1    16    1
    14    16    17   ar
    15    17    18   ar
    16    18    19   ar
    17    19    22    1
    18    22    23    1
    19    22    24    1
    20    22    25    1
    21    19    20   ar
    22    20    21   ar
    23     1    26    1
    24    26    27   ar
    25    27    28   ar
    26    28    29   ar
    27    29    30   ar
    28    30    31   ar
    29     5     6    1
    30     6     7    1
    31    15    10   ar
    32     7     2    1
    33    21    16   ar
    34    31    26   ar
@<TRIPOS>MOLECULE
*****
 31 34 0 0 0
SMALL
GASTEIGER

@<TRIPOS>ATOM
      1 N          62.7055   88.6572   11.3173 N.pl3   1  UNL1       -0.2872
      2 N          64.9738   92.5097   11.8299 N.3     1  UNL1       -0.2689
      3 C          64.8140   91.5733   12.9908 C.3     1  UNL1        0.0741
      4 C          64.0579   90.2891   12.8199 C.3     1  UNL1        0.0375
      5 C          63.4616   89.9414   11.4882 C.3     1  UNL1        0.0800
      6 C          63.6213   90.8777   10.3274 C.3     1  UNL1        0.0375
      7 C          64.3775   92.1620   10.4982 C.3     1  UNL1        0.0741
      8 C          65.7299   93.7939   12.0008 C.3     1  UNL1        0.0988
      9 C          67.8193   92.6046   10.2063 C.3     1  UNL1        0.0307
     10 C          67.2479   93.9570    9.8986 C.ar    1  UNL1       -0.0245
     11 C          67.7212   94.7147    8.6937 C.ar    1  UNL1       -0.0045
     12 C          67.1498   96.0670    8.3861 C.ar    1  UNL1       -0.0003
     13 C          66.1052   96.6617    9.2833 C.ar    1  UNL1       -0.0003
     14 C          65.6319   95.9039   10.4882 C.ar    1  UNL1       -0.0032
     15 C          66.2032   94.5516   10.7958 C.ar    1  UNL1       -0.0101
     16 C          63.0282   87.4758   12.1835 C.ar    1  UNL1        0.0515
     17 C          63.8099   87.6654   13.4496 C.ar    1  UNL1        0.0148
     18 C          64.1327   86.4841   14.3158 C.ar    1  UNL1        0.0051
     19 C          63.6738   85.1132   13.9158 C.ar    1  UNL1        0.0715
     20 C          62.8921   84.9236   12.6497 C.ar    1  UNL1        0.0051
     21 C          62.5693   86.1049   11.7836 C.ar    1  UNL1        0.0148
     22 C          63.9966   83.9318   14.7820 C.3     1  UNL1        0.4186
     23 F          64.3193   82.7505   15.6482 F       1  UNL1       -0.1659
     24 F          64.1300   84.8387   15.9692 F       1  UNL1       -0.1659
     25 F          63.8632   83.0248   13.5948 F       1  UNL1       -0.1659
     26 C          61.6266   88.5544   10.2803 C.ar    1  UNL1        0.0710
     27 C          61.5217   87.3256    9.4264 C.ar    1  UNL1        0.0180
     28 C          60.4428   87.2228    8.3894 C.ar    1  UNL1        0.0220
     29 C          59.4688   88.3487    8.2063 C.ar    1  UNL1        0.0990
     30 N          59.5736   89.5775    9.0602 N.ar    1  UNL1       -0.2410
     31 C          60.6525   89.6803   10.0972 C.ar    1  UNL1        0.1136
@<TRIPOS>BOND
     1     9    10    1
     2    10    11   ar
     3    11    12   ar
     4    12    13   ar
     5    13    14   ar
     6    14    15   ar
     7    15     8    1
     8     8     2    1
     9     2     3    1
    10     3     4    1
    11     4     5    1
    12     5     1    1
    13     1    16    1
    14    16    17   ar
    15    17    18   ar
    16    18    19   ar
    17    19    22    1
    18    22    23    1
    19    22    24    1
    20    22    25    1
    21    19    20   ar
    22    20    21   ar
    23     1    26    1
    24    26    27   ar
    25    27    28   ar
    26    28    29   ar
    27    29    30   ar
    28    30    31   ar
    29     5     6    1
    30     6     7    1
    31    15    10   ar
    32     7     2    1
    33    21    16   ar
    34    31    26   ar
@<TRIPOS>MOLECULE
*****
 31 34 0 0 0
SMALL
GASTEIGER

@<TRIPOS>ATOM
      1 N          62.3311   87.0734   11.0303 N.pl3   1  UNL1       -0.2872
      2 N          59.5230   88.5332    7.8314 N.3     1  UNL1       -0.2689
      3 C          60.0883   89.4985    8.8307 C.3     1  UNL1        0.0741
      4 C          61.0244   89.0119    9.8970 C.3     1  UNL1        0.0375
      5 C          61.3951   87.5600    9.9640 C.3     1  UNL1        0.0800
      6 C          60.8298   86.5947    8.9647 C.3     1  UNL1        0.0375
      7 C          59.8937   87.0813    7.8984 C.3     1  UNL1        0.0741
      8 C          58.5869   89.0198    6.7651 C.3     1  UNL1        0.0988
      9 C          56.5183   90.7372    5.4342 C.3     1  UNL1        0.0307
     10 C          57.9755   90.9836    5.1776 C.ar    1  UNL1       -0.0245
     11 C          58.3985   92.0885    4.2556 C.ar    1  UNL1       -0.0045
     12 C          59.8557   92.3349    3.9991 C.ar    1  UNL1       -0.0003
     13 C          60.8900   91.4762    4.6645 C.ar    1  UNL1       -0.0003
     14 C          60.4671   90.3712    5.5865 C.ar    1  UNL1       -0.0032
     15 C          59.0099   90.1249    5.8431 C.ar    1  UNL1       -0.0101
     16 C          62.9549   88.0496   11.9833 C.ar    1  UNL1        0.0515
     17 C          63.5977   87.5582   13.2464 C.ar    1  UNL1        0.0148
     18 C          64.2215   88.5342   14.1993 C.ar    1  UNL1        0.0051
     19 C          64.2024   90.0017   13.8892 C.ar    1  UNL1        0.0715
     20 C          63.5597   90.4930   12.6261 C.ar    1  UNL1        0.0051
     21 C          62.9359   89.5170   11.6732 C.ar    1  UNL1        0.0148
     22 C          64.8262   90.9778   14.8422 C.3     1  UNL1        0.4186
     23 F          65.4500   91.9539   15.7951 F       1  UNL1       -0.1659
     24 F          65.6368   91.5554   13.7200 F       1  UNL1       -0.1659
     25 F          64.0157   90.4002   15.9644 F       1  UNL1       -0.1659
     26 C          62.6435   85.6107   11.1436 C.ar    1  UNL1        0.0710
     27 C          63.2919   84.8912    9.9982 C.ar    1  UNL1        0.0180
     28 C          63.6042   83.4285   10.1115 C.ar    1  UNL1        0.0220
     29 C          63.2681   82.6852   11.3704 C.ar    1  UNL1        0.0990
     30 N          62.6197   83.4046   12.5157 N.ar    1  UNL1       -0.2410
     31 C          62.3073   84.8673   12.4024 C.ar    1  UNL1        0.1136
@<TRIPOS>BOND
     1     9    10    1
     2    10    11   ar
     3    11    12   ar
     4    12    13   ar
     5    13    14   ar
     6    14    15   ar
     7    15     8    1
     8     8     2    1
     9     2     3    1
    10     3     4    1
    11     4     5    1
    12     5     1    1
    13     1    16    1
    14    16    17   ar
    15    17    18   ar
    16    18    19   ar
    17    19    22    1
    18    22    23    1
    19    22    24    1
    20    22    25    1
    21    19    20   ar
    22    20    21   ar
    23     1    26    1
    24    26    27   ar
    25    27    28   ar
    26    28    29   ar
    27    29    30   ar
    28    30    31   ar
    29     5     6    1
    30     6     7    1
    31    15    10   ar
    32     7     2    1
    33    21    16   ar
    34    31    26   ar
@<TRIPOS>MOLECULE
*****
 31 34 0 0 0
SMALL
GASTEIGER

@<TRIPOS>ATOM
      1 N          62.3610   87.8431   11.2446 N.pl3   1  UNL1       -0.2872
      2 N          64.2976   91.8986   11.4741 N.3     1  UNL1       -0.2689
      3 C          63.6323   91.4559   10.2046 C.3     1  UNL1        0.0741
      4 C          62.9868   90.1041   10.1281 C.3     1  UNL1        0.0375
      5 C          63.0066   89.1949   11.3210 C.3     1  UNL1        0.0800
      6 C          63.6719   89.6376   12.5904 C.3     1  UNL1        0.0375
      7 C          64.3174   90.9894   12.6670 C.3     1  UNL1        0.0741
      8 C          64.9432   93.2504   11.5505 C.3     1  UNL1        0.0988
      9 C          65.2539   96.0165   10.4316 C.3     1  UNL1        0.0307
     10 C          66.2660   94.9581   10.1071 C.ar    1  UNL1       -0.0245
     11 C          67.4336   95.2828    9.2231 C.ar    1  UNL1       -0.0045
     12 C          68.4457   94.2244    8.8985 C.ar    1  UNL1       -0.0003
     13 C          68.2904   92.8414    9.4580 C.ar    1  UNL1       -0.0003
     14 C          67.1229   92.5167   10.3419 C.ar    1  UNL1       -0.0032
     15 C          66.1107   93.5751   10.6665 C.ar    1  UNL1       -0.0101
     16 C          62.7887   86.7536   12.1828 C.ar    1  UNL1        0.0515
     17 C          63.6134   87.0851   13.3910 C.ar    1  UNL1        0.0148
     18 C          64.0411   85.9957   14.3291 C.ar    1  UNL1        0.0051
     19 C          63.6440   84.5747   14.0591 C.ar    1  UNL1        0.0715
     20 C          62.8192   84.2431   12.8508 C.ar    1  UNL1        0.0051
     21 C          62.3916   85.3326   11.9127 C.ar    1  UNL1        0.0148
     22 C          64.0716   83.4852   14.9973 C.3     1  UNL1        0.4186
     23 F          64.4992   82.3957   15.9354 F       1  UNL1       -0.1659
     24 F          62.6580   83.3451   15.4789 F       1  UNL1       -0.1659
     25 F          65.4852   83.6252   14.5156 F       1  UNL1       -0.1659
     26 C          61.2879   87.5808   10.2299 C.ar    1  UNL1        0.0710
     27 C          61.5801   86.7245    9.0334 C.ar    1  UNL1        0.0180
     28 C          60.5070   86.4622    8.0188 C.ar    1  UNL1        0.0220
     29 C          59.1415   87.0561    8.2007 C.ar    1  UNL1        0.0990
     30 N          58.8493   87.9122    9.3971 N.ar    1  UNL1       -0.2410
     31 C          59.9225   88.1746   10.4118 C.ar    1  UNL1        0.1136
@<TRIPOS>BOND
     1     9    10    1
     2    10    11   ar
     3    11    12   ar
     4    12    13   ar
     5    13    14   ar
     6    14    15   ar
     7    15     8    1
     8     8     2    1
     9     2     3    1
    10     3     4    1
    11     4     5    1
    12     5     1    1
    13     1    16    1
    14    16    17   ar
    15    17    18   ar
    16    18    19   ar
    17    19    22    1
    18    22    23    1
    19    22    24    1
    20    22    25    1
    21    19    20   ar
    22    20    21   ar
    23     1    26    1
    24    26    27   ar
    25    27    28   ar
    26    28    29   ar
    27    29    30   ar
    28    30    31   ar
    29     5     6    1
    30     6     7    1
    31    15    10   ar
    32     7     2    1
    33    21    16   ar
    34    31    26   ar
@<TRIPOS>MOLECULE
*****
 31 34 0 0 0
SMALL
GASTEIGER

@<TRIPOS>ATOM
      1 N          62.1867   87.7549   10.6994 N.pl3   1  UNL1       -0.2872
      2 N          64.3742   91.5143   11.8535 N.3     1  UNL1       -0.2689
      3 C          63.7432   91.4000   10.4975 C.3     1  UNL1        0.0741
      4 C          63.0141   90.1469   10.1128 C.3     1  UNL1        0.0375
      5 C          62.9159   89.0081   11.0841 C.3     1  UNL1        0.0800
      6 C          63.5468   89.1223   12.4401 C.3     1  UNL1        0.0375
      7 C          64.2759   90.3755   12.8249 C.3     1  UNL1        0.0741
      8 C          65.1033   92.7674   12.2382 C.3     1  UNL1        0.0988
      9 C          67.7728   91.7009   11.3802 C.3     1  UNL1        0.0307
     10 C          67.2480   92.9746   10.7866 C.ar    1  UNL1       -0.0245
     11 C          68.0580   93.7150    9.7640 C.ar    1  UNL1       -0.0045
     12 C          67.5332   94.9887    9.1704 C.ar    1  UNL1       -0.0003
     13 C          66.1985   95.5220    9.5994 C.ar    1  UNL1       -0.0003
     14 C          65.3885   94.7815   10.6220 C.ar    1  UNL1       -0.0032
     15 C          65.9133   93.5079   11.2156 C.ar    1  UNL1       -0.0101
     16 C          62.5496   86.4488   11.3416 C.ar    1  UNL1        0.0515
     17 C          62.9125   86.4037   12.7964 C.ar    1  UNL1        0.0148
     18 C          63.2754   85.0977   13.4386 C.ar    1  UNL1        0.0051
     19 C          63.2754   83.8368   12.6262 C.ar    1  UNL1        0.0715
     20 C          62.9125   83.8819   11.1714 C.ar    1  UNL1        0.0051
     21 C          62.5496   85.1880   10.5292 C.ar    1  UNL1        0.0148
     22 C          63.6383   82.5307   13.2685 C.3     1  UNL1        0.4186
     23 F          64.0012   81.2246   13.9107 F       1  UNL1       -0.1659
     24 F          64.8075   82.3981   12.3382 F       1  UNL1       -0.1659
     25 F          62.4692   82.6632   14.1987 F       1  UNL1       -0.1659
     26 C          61.0947   87.8079    9.6724 C.ar    1  UNL1        0.0710
     27 C          60.6378   89.1301    9.1309 C.ar    1  UNL1        0.0180
     28 C          59.5457   89.1830    8.1040 C.ar    1  UNL1        0.0220
     29 C          58.9106   87.9137    7.6185 C.ar    1  UNL1        0.0990
     30 N          59.3675   86.5916    8.1599 N.ar    1  UNL1       -0.2410
     31 C          60.4596   86.5387    9.1869 C.ar    1  UNL1        0.1136
@<TRIPOS>BOND
     1     9    10    1
     2    10    11   ar
     3    11    12   ar
     4    12    13   ar
     5    13    14   ar
     6    14    15   ar
     7    15     8    1
     8     8     2    1
     9     2     3    1
    10     3     4    1
    11     4     5    1
    12     5     1    1
    13     1    16    1
    14    16    17   ar
    15    17    18   ar
    16    18    19   ar
    17    19    22    1
    18    22    23    1
    19    22    24    1
    20    22    25    1
    21    19    20   ar
    22    20    21   ar
    23     1    26    1
    24    26    27   ar
    25    27    28   ar
    26    28    29   ar
    27    29    30   ar
    28    30    31   ar
    29     5     6    1
    30     6     7    1
    31    15    10   ar
    32     7     2    1
    33    21    16   ar
    34    31    26   ar
