@<TRIPOS>MOLECULE
*****
 40 44 0 0 0
SMALL
GASTEIGER

@<TRIPOS>ATOM
      1 C          64.0809   89.1550   14.2161 C.ar    1  UNL1        0.2218
      2 N          64.5358   88.1443   15.2269 N.ar    1  UNL1       -0.2119
      3 C          64.2814   86.6844   14.9947 C.ar    1  UNL1        0.1061
      4 C          63.5723   86.2352   13.7516 C.ar    1  UNL1        0.0683
      5 C          63.1175   87.2458   12.7408 C.ar    1  UNL1        0.1343
      6 N          63.3718   88.7057   12.9730 N.ar    1  UNL1       -0.1988
      7 C          63.3180   84.7752   13.5193 C.ar    1  UNL1        0.0854
      8 C          62.8244   83.9119   14.6423 C.ar    1  UNL1        0.0193
      9 C          62.5700   82.4521   14.4101 C.ar    1  UNL1        0.0030
     10 C          62.8093   81.8553   13.0548 C.ar    1  UNL1        0.0177
     11 C          62.5550   80.3955   12.8225 C.ar    1  UNL1        0.0015
     12 C          62.7942   79.7988   11.4673 C.ar    1  UNL1        0.0001
     13 C          63.2878   80.6621   10.3443 C.ar    1  UNL1        0.0015
     14 C          63.5422   82.1220   10.5765 C.ar    1  UNL1        0.0191
     15 C          63.3029   82.7186   11.9317 C.ar    1  UNL1        0.0813
     16 N          63.5573   84.1786   12.1641 N.ar    1  UNL1       -0.2452
     17 N          64.3353   90.6149   14.4484 N.pl3   1  UNL1       -0.2823
     18 H          63.8005   91.1083   15.1115 H       1  UNL1        0.1551
     19 C          66.1320   92.7207   11.6045 C.ar    1  UNL1        0.2262
     20 C          65.0629   92.0125   12.3826 C.ar    1  UNL1        0.0724
     21 C          65.4044   91.3230   13.6703 C.ar    1  UNL1        0.0567
     22 C          66.8151   91.3417   14.1797 C.ar    1  UNL1        0.0356
     23 C          67.8843   92.0498   13.4016 C.ar    1  UNL1        0.1033
     24 N          67.5428   92.7393   12.1140 N.ar    1  UNL1       -0.2101
     25 C          66.7498   94.3941    9.7156 C.3     1  UNL1        0.2542
     26 O          65.7905   93.4101   10.3169 O.3     1  UNL1       -0.4561
     27 N          62.4084   86.7965   11.4976 N.pl3   1  UNL1       -0.3172
     28 H          62.5086   85.8695   11.1816 H       1  UNL1        0.1482
     29 C          61.5466   87.7595   10.7362 C.3     1  UNL1        0.0998
     30 C          61.1584   87.6435    9.2919 C.3     1  UNL1        0.0271
     31 C          60.2936   88.8200    8.9484 C.3     1  UNL1        0.0604
     32 C          60.1474   89.6632   10.1803 C.3     1  UNL1        0.1412
     33 O          59.3643   90.9380   10.2884 O.3     1  UNL1       -0.3818
     34 C          60.9218   89.0078   11.2852 C.3     1  UNL1        0.1549
     35 O          61.0490   89.5122   12.6921 O.3     1  UNL1       -0.3803
     36 H          59.4322   91.2835   11.1922 H       1  UNL1        0.2104
     37 H          60.5492   90.3382   12.7859 H       1  UNL1        0.2105
     38 C          59.6824   89.1035    7.6082 C.3     1  UNL1        0.1396
     39 O          58.5285   88.2784    7.1205 O.3     1  UNL1       -0.3819
     40 H          58.8225   87.3655    6.9751 H       1  UNL1        0.2104
@<TRIPOS>BOND
     1    25    26    1
     2    26    19    1
     3    19    20   ar
     4    20    21   ar
     5    21    17    1
     6    17     1    1
     7     1     2   ar
     8     2     3   ar
     9     3     4   ar
    10     4     7    1
    11     7     8   ar
    12     8     9   ar
    13     9    10   ar
    14    10    11   ar
    15    11    12   ar
    16    12    13   ar
    17    13    14   ar
    18    14    15   ar
    19    15    16   ar
    20     4     5   ar
    21     5    27    1
    22    29    27    1
    23    29    30    1
    24    30    31    1
    25    31    38    1
    26    38    39    1
    27    31    32    1
    28    32    33    1
    29    32    34    1
    30    34    35    1
    31     5     6   ar
    32    21    22   ar
    33    22    23   ar
    34    23    24   ar
    35    24    19   ar
    36     6     1   ar
    37    16     7   ar
    38    34    29    1
    39    15    10   ar
    40    17    18    1
    41    27    28    1
    42    39    40    1
    43    33    36    1
    44    35    37    1
@<TRIPOS>MOLECULE
*****
 40 44 0 0 0
SMALL
GASTEIGER

@<TRIPOS>ATOM
      1 C          63.9766   90.5057   15.2074 C.ar    1  UNL1        0.2218
      2 N          65.2673   91.2400   15.4195 N.ar    1  UNL1       -0.2119
      3 C          65.9095   91.9727   14.2790 C.ar    1  UNL1        0.1061
      4 C          65.2609   91.9712   12.9265 C.ar    1  UNL1        0.0683
      5 C          63.9702   91.2369   12.7144 C.ar    1  UNL1        0.1343
      6 N          63.3280   90.5042   13.8549 N.ar    1  UNL1       -0.1988
      7 C          65.9031   92.7039   11.7859 C.ar    1  UNL1        0.0854
      8 C          67.0684   92.0946   11.0643 C.ar    1  UNL1        0.0193
      9 C          67.7106   92.8273    9.9238 C.ar    1  UNL1        0.0030
     10 C          67.1874   94.1693    9.5049 C.ar    1  UNL1        0.0177
     11 C          67.8296   94.9020    8.3644 C.ar    1  UNL1        0.0015
     12 C          67.3064   96.2439    7.9456 C.ar    1  UNL1        0.0001
     13 C          66.1411   96.8532    8.6672 C.ar    1  UNL1        0.0015
     14 C          65.4989   96.1205    9.8077 C.ar    1  UNL1        0.0191
     15 C          66.0221   94.7786   10.2266 C.ar    1  UNL1        0.0813
     16 N          65.3799   94.0458   11.3671 N.ar    1  UNL1       -0.2452
     17 N          63.3344   89.7730   16.3480 N.pl3   1  UNL1       -0.2823
     18 H          62.8897   90.2759   17.0681 H       1  UNL1        0.1551
     19 C          64.1401   86.0113   15.3731 C.ar    1  UNL1        0.2262
     20 C          64.1047   87.5102   15.3298 C.ar    1  UNL1        0.0724
     21 C          63.3699   88.2740   16.3913 C.ar    1  UNL1        0.0567
     22 C          62.6706   87.5389   17.4960 C.ar    1  UNL1        0.0356
     23 C          62.7060   86.0399   17.5394 C.ar    1  UNL1        0.1033
     24 N          63.4408   85.2761   16.4779 N.ar    1  UNL1       -0.2101
     25 C          64.2689   84.0070   13.7250 C.3     1  UNL1        0.2542
     26 O          64.8749   85.2474   14.3117 O.3     1  UNL1       -0.4561
     27 N          63.3217   91.2355   11.3618 N.pl3   1  UNL1       -0.3172
     28 H          63.4214   92.0137   10.7672 H       1  UNL1        0.1482
     29 C          62.5212   90.0481   10.9152 C.3     1  UNL1        0.0998
     30 C          62.9790   88.9840    9.9623 C.3     1  UNL1        0.0271
     31 C          61.8631   87.9947    9.8012 C.3     1  UNL1        0.0604
     32 C          60.7156   88.4473   10.6547 C.3     1  UNL1        0.1412
     33 O          59.3934   87.7528   10.7950 O.3     1  UNL1       -0.3818
     34 C          61.1223   89.7164   11.3431 C.3     1  UNL1        0.1549
     35 O          60.2783   90.5138   12.2928 O.3     1  UNL1       -0.3803
     36 H          58.8293   88.2519   11.4062 H       1  UNL1        0.2104
     37 H          59.4160   90.0825   12.3993 H       1  UNL1        0.2105
     38 C          61.8900   86.7680    8.9383 C.3     1  UNL1        0.1396
     39 O          60.6246   86.0053    8.6794 O.3     1  UNL1       -0.3819
     40 H          60.3078   85.6137    9.5084 H       1  UNL1        0.2104
@<TRIPOS>BOND
     1    25    26    1
     2    26    19    1
     3    19    20   ar
     4    20    21   ar
     5    21    17    1
     6    17     1    1
     7     1     2   ar
     8     2     3   ar
     9     3     4   ar
    10     4     7    1
    11     7     8   ar
    12     8     9   ar
    13     9    10   ar
    14    10    11   ar
    15    11    12   ar
    16    12    13   ar
    17    13    14   ar
    18    14    15   ar
    19    15    16   ar
    20     4     5   ar
    21     5    27    1
    22    29    27    1
    23    29    30    1
    24    30    31    1
    25    31    38    1
    26    38    39    1
    27    31    32    1
    28    32    33    1
    29    32    34    1
    30    34    35    1
    31     5     6   ar
    32    21    22   ar
    33    22    23   ar
    34    23    24   ar
    35    24    19   ar
    36     6     1   ar
    37    16     7   ar
    38    34    29    1
    39    15    10   ar
    40    17    18    1
    41    27    28    1
    42    39    40    1
    43    33    36    1
    44    35    37    1
@<TRIPOS>MOLECULE
*****
 40 44 0 0 0
SMALL
GASTEIGER

@<TRIPOS>ATOM
      1 C          59.3005   88.6105    7.6524 C.ar    1  UNL1        0.2218
      2 N          59.6780   87.2905    7.0482 N.ar    1  UNL1       -0.2119
      3 C          60.5463   86.3363    7.8134 C.ar    1  UNL1        0.1061
      4 C          61.0369   86.7021    9.1828 C.ar    1  UNL1        0.0683
      5 C          60.6594   88.0221    9.7870 C.ar    1  UNL1        0.1343
      6 N          59.7912   88.9763    9.0218 N.ar    1  UNL1       -0.1988
      7 C          61.9052   85.7478    9.9481 C.ar    1  UNL1        0.0854
      8 C          62.9370   84.9307    9.2287 C.ar    1  UNL1        0.0193
      9 C          63.8052   83.9765    9.9939 C.ar    1  UNL1        0.0030
     10 C          63.6417   83.8394   11.4787 C.ar    1  UNL1        0.0177
     11 C          64.5100   82.8852   12.2439 C.ar    1  UNL1        0.0015
     12 C          64.3464   82.7482   13.7286 C.ar    1  UNL1        0.0001
     13 C          63.3147   83.5654   14.4481 C.ar    1  UNL1        0.0015
     14 C          62.4464   84.5196   13.6829 C.ar    1  UNL1        0.0191
     15 C          62.6099   84.6566   12.1982 C.ar    1  UNL1        0.0813
     16 N          61.7417   85.6108   11.4329 N.ar    1  UNL1       -0.2452
     17 N          58.4322   89.5647    6.8870 N.pl3   1  UNL1       -0.2823
     18 H          57.4657   89.6057    7.0698 H       1  UNL1        0.1551
     19 C          61.1030   91.2449    4.4799 C.ar    1  UNL1        0.2262
     20 C          60.4986   90.3532    5.5238 C.ar    1  UNL1        0.0724
     21 C          59.0366   90.4564    5.8432 C.ar    1  UNL1        0.0567
     22 C          58.1791   91.4513    5.1189 C.ar    1  UNL1        0.0356
     23 C          58.7834   92.3431    4.0750 C.ar    1  UNL1        0.1033
     24 N          60.2454   92.2399    3.7556 N.ar    1  UNL1       -0.2101
     25 C          63.0901   91.6880    2.8660 C.3     1  UNL1        0.2542
     26 O          62.5649   91.1418    4.1605 O.3     1  UNL1       -0.4561
     27 N          61.1501   88.3879   11.1565 N.pl3   1  UNL1       -0.3172
     28 H          60.8150   87.9033   11.9452 H       1  UNL1        0.1482
     29 C          62.1515   89.4920   11.3243 C.3     1  UNL1        0.0998
     30 C          62.9084   90.1709   10.2214 C.3     1  UNL1        0.0271
     31 C          63.7965   91.2096   10.8399 C.3     1  UNL1        0.0604
     32 C          63.5885   91.1726   12.3249 C.3     1  UNL1        0.1412
     33 O          64.2764   92.0441   13.3335 O.3     1  UNL1       -0.3818
     34 C          62.5719   90.1111   12.6243 C.3     1  UNL1        0.1549
     35 O          62.0646   89.7348   13.9848 O.3     1  UNL1       -0.3803
     36 H          63.9632   91.8181   14.2233 H       1  UNL1        0.2104
     37 H          62.4967   90.2869   14.6551 H       1  UNL1        0.2105
     38 C          64.7289   92.1246   10.1026 C.3     1  UNL1        0.1396
     39 O          65.0427   93.4820   10.6584 O.3     1  UNL1       -0.3819
     40 H          64.2407   94.0275   10.6515 H       1  UNL1        0.2104
@<TRIPOS>BOND
     1    25    26    1
     2    26    19    1
     3    19    20   ar
     4    20    21   ar
     5    21    17    1
     6    17     1    1
     7     1     2   ar
     8     2     3   ar
     9     3     4   ar
    10     4     7    1
    11     7     8   ar
    12     8     9   ar
    13     9    10   ar
    14    10    11   ar
    15    11    12   ar
    16    12    13   ar
    17    13    14   ar
    18    14    15   ar
    19    15    16   ar
    20     4     5   ar
    21     5    27    1
    22    29    27    1
    23    29    30    1
    24    30    31    1
    25    31    38    1
    26    38    39    1
    27    31    32    1
    28    32    33    1
    29    32    34    1
    30    34    35    1
    31     5     6   ar
    32    21    22   ar
    33    22    23   ar
    34    23    24   ar
    35    24    19   ar
    36     6     1   ar
    37    16     7   ar
    38    34    29    1
    39    15    10   ar
    40    17    18    1
    41    27    28    1
    42    39    40    1
    43    33    36    1
    44    35    37    1
@<TRIPOS>MOLECULE
*****
 40 44 0 0 0
SMALL
GASTEIGER

@<TRIPOS>ATOM
      1 C          63.5133   90.0733   14.0437 C.ar    1  UNL1        0.2218
      2 N          62.5382   90.7301   13.1122 N.ar    1  UNL1       -0.2119
      3 C          61.9664   89.9592   11.9594 C.ar    1  UNL1        0.1061
      4 C          62.3698   88.5315   11.7382 C.ar    1  UNL1        0.0683
      5 C          63.3450   87.8747   12.6697 C.ar    1  UNL1        0.1343
      6 N          63.9167   88.6456   13.8225 N.ar    1  UNL1       -0.1988
      7 C          61.7981   87.7606   10.5854 C.ar    1  UNL1        0.0854
      8 C          60.3442   87.8941   10.2413 C.ar    1  UNL1        0.0193
      9 C          59.7725   87.1232    9.0886 C.ar    1  UNL1        0.0030
     10 C          60.6546   86.2188    8.2799 C.ar    1  UNL1        0.0177
     11 C          60.0829   85.4479    7.1272 C.ar    1  UNL1        0.0015
     12 C          60.9650   84.5435    6.3186 C.ar    1  UNL1        0.0001
     13 C          62.4189   84.4100    6.6627 C.ar    1  UNL1        0.0015
     14 C          62.9906   85.1809    7.8154 C.ar    1  UNL1        0.0191
     15 C          62.1085   86.0853    8.6240 C.ar    1  UNL1        0.0813
     16 N          62.6802   86.8562    9.7768 N.ar    1  UNL1       -0.2452
     17 N          64.0851   90.8442   15.1965 N.pl3   1  UNL1       -0.2823
     18 H          63.6055   90.8727   16.0558 H       1  UNL1        0.1551
     19 C          67.4048   92.2819   13.5647 C.ar    1  UNL1        0.2262
     20 C          66.1024   91.5544   13.7213 C.ar    1  UNL1        0.0724
     21 C          65.3874   91.5718   15.0399 C.ar    1  UNL1        0.0567
     22 C          65.9747   92.3168   16.2017 C.ar    1  UNL1        0.0356
     23 C          67.2771   93.0444   16.0451 C.ar    1  UNL1        0.1033
     24 N          67.9921   93.0270   14.7267 N.ar    1  UNL1       -0.2101
     25 C          67.3367   92.3111   10.9677 C.3     1  UNL1        0.2542
     26 O          68.1198   92.2645   12.2462 O.3     1  UNL1       -0.4561
     27 N          63.7484   86.4470   12.4485 N.pl3   1  UNL1       -0.3172
     28 H          64.3296   86.2116   11.6895 H       1  UNL1        0.1482
     29 C          63.2663   85.3779   13.3837 C.3     1  UNL1        0.0998
     30 C          62.7029   84.0461   12.9849 C.3     1  UNL1        0.0271
     31 C          62.3513   83.2980   14.2366 C.3     1  UNL1        0.0604
     32 C          62.6973   84.1674   15.4089 C.3     1  UNL1        0.1412
     33 O          62.5107   83.8136   16.8546 O.3     1  UNL1       -0.3818
     34 C          63.2628   85.4529   14.8818 C.3     1  UNL1        0.1549
     35 O          63.7408   86.6101   15.7078 O.3     1  UNL1       -0.3803
     36 H          62.8139   84.5493   17.4093 H       1  UNL1        0.2104
     37 H          63.6295   86.4034   16.6489 H       1  UNL1        0.2105
     38 C          61.7579   81.9220   14.3041 C.3     1  UNL1        0.1396
     39 O          62.6323   80.7423   14.6102 O.3     1  UNL1       -0.3819
     40 H          63.2639   80.6114   13.8857 H       1  UNL1        0.2104
@<TRIPOS>BOND
     1    25    26    1
     2    26    19    1
     3    19    20   ar
     4    20    21   ar
     5    21    17    1
     6    17     1    1
     7     1     2   ar
     8     2     3   ar
     9     3     4   ar
    10     4     7    1
    11     7     8   ar
    12     8     9   ar
    13     9    10   ar
    14    10    11   ar
    15    11    12   ar
    16    12    13   ar
    17    13    14   ar
    18    14    15   ar
    19    15    16   ar
    20     4     5   ar
    21     5    27    1
    22    29    27    1
    23    29    30    1
    24    30    31    1
    25    31    38    1
    26    38    39    1
    27    31    32    1
    28    32    33    1
    29    32    34    1
    30    34    35    1
    31     5     6   ar
    32    21    22   ar
    33    22    23   ar
    34    23    24   ar
    35    24    19   ar
    36     6     1   ar
    37    16     7   ar
    38    34    29    1
    39    15    10   ar
    40    17    18    1
    41    27    28    1
    42    39    40    1
    43    33    36    1
    44    35    37    1
@<TRIPOS>MOLECULE
*****
 40 44 0 0 0
SMALL
GASTEIGER

@<TRIPOS>ATOM
      1 C          61.6011   89.0226   11.3209 C.ar    1  UNL1        0.2218
      2 N          61.8242   90.4097   10.7953 N.ar    1  UNL1       -0.2119
      3 C          62.9258   91.2573   11.3592 C.ar    1  UNL1        0.1061
      4 C          63.8042   90.7178   12.4488 C.ar    1  UNL1        0.0683
      5 C          63.5811   89.3308   12.9745 C.ar    1  UNL1        0.1343
      6 N          62.4796   88.4832   12.4105 N.ar    1  UNL1       -0.1988
      7 C          64.9059   91.5654   13.0129 C.ar    1  UNL1        0.0854
      8 C          65.2325   92.8871   12.3832 C.ar    1  UNL1        0.0193
      9 C          66.3341   93.7347   12.9472 C.ar    1  UNL1        0.0030
     10 C          67.1091   93.2606   14.1409 C.ar    1  UNL1        0.0177
     11 C          68.2106   94.1082   14.7049 C.ar    1  UNL1        0.0015
     12 C          68.9855   93.6341   15.8984 C.ar    1  UNL1        0.0001
     13 C          68.6588   92.3124   16.5281 C.ar    1  UNL1        0.0015
     14 C          67.5573   91.4648   15.9641 C.ar    1  UNL1        0.0191
     15 C          66.7824   91.9389   14.7705 C.ar    1  UNL1        0.0813
     16 N          65.6808   91.0913   14.2065 N.ar    1  UNL1       -0.2452
     17 N          60.4995   88.1750   10.7568 N.pl3   1  UNL1       -0.2823
     18 H          59.5837   88.2606   11.1078 H       1  UNL1        0.1551
     19 C          62.3382   85.3927    8.6055 C.ar    1  UNL1        0.2262
     20 C          62.0444   86.3707    9.7043 C.ar    1  UNL1        0.0724
     21 C          60.7933   87.1970    9.6581 C.ar    1  UNL1        0.0567
     22 C          59.8361   87.0454    8.5132 C.ar    1  UNL1        0.0356
     23 C          60.1300   86.0674    7.4145 C.ar    1  UNL1        0.1033
     24 N          61.3809   85.2411    7.4606 N.ar    1  UNL1       -0.2101
     25 C          63.8368   83.6444    9.8086 C.3     1  UNL1        0.2542
     26 O          63.5892   84.5664    8.6517 O.3     1  UNL1       -0.4561
     27 N          64.4596   88.7913   14.0641 N.pl3   1  UNL1       -0.3172
     28 H          65.2815   89.2709   14.3166 H       1  UNL1        0.1482
     29 C          64.0859   87.5211   14.7691 C.3     1  UNL1        0.0998
     30 C          64.3946   86.1296   14.3017 C.3     1  UNL1        0.0271
     31 C          63.8373   85.1679   15.3090 C.3     1  UNL1        0.0604
     32 C          63.1841   85.9651   16.3989 C.3     1  UNL1        0.1412
     33 O          62.4977   85.4061   17.6098 O.3     1  UNL1       -0.3818
     34 C          63.3377   87.4194   16.0652 C.3     1  UNL1        0.1549
     35 O          62.8320   88.5700   16.8839 O.3     1  UNL1       -0.3803
     36 H          62.1616   86.1340   18.1558 H       1  UNL1        0.2104
     37 H          62.3832   88.2317   17.6745 H       1  UNL1        0.2105
     38 C          63.9188   83.6718   15.2386 C.3     1  UNL1        0.1396
     39 O          62.7436   82.8364   15.6520 O.3     1  UNL1       -0.3819
     40 H          62.5876   82.9460   16.6031 H       1  UNL1        0.2104
@<TRIPOS>BOND
     1    25    26    1
     2    26    19    1
     3    19    20   ar
     4    20    21   ar
     5    21    17    1
     6    17     1    1
     7     1     2   ar
     8     2     3   ar
     9     3     4   ar
    10     4     7    1
    11     7     8   ar
    12     8     9   ar
    13     9    10   ar
    14    10    11   ar
    15    11    12   ar
    16    12    13   ar
    17    13    14   ar
    18    14    15   ar
    19    15    16   ar
    20     4     5   ar
    21     5    27    1
    22    29    27    1
    23    29    30    1
    24    30    31    1
    25    31    38    1
    26    38    39    1
    27    31    32    1
    28    32    33    1
    29    32    34    1
    30    34    35    1
    31     5     6   ar
    32    21    22   ar
    33    22    23   ar
    34    23    24   ar
    35    24    19   ar
    36     6     1   ar
    37    16     7   ar
    38    34    29    1
    39    15    10   ar
    40    17    18    1
    41    27    28    1
    42    39    40    1
    43    33    36    1
    44    35    37    1
@<TRIPOS>MOLECULE
*****
 40 44 0 0 0
SMALL
GASTEIGER

@<TRIPOS>ATOM
      1 C          61.4903   88.5513   11.0765 C.ar    1  UNL1        0.2218
      2 N          61.5627   90.0491   11.0423 N.ar    1  UNL1       -0.2119
      3 C          62.5323   90.7736   11.9282 C.ar    1  UNL1        0.1061
      4 C          63.4296   90.0002   12.8483 C.ar    1  UNL1        0.0683
      5 C          63.3572   88.5023   12.8826 C.ar    1  UNL1        0.1343
      6 N          62.3876   87.7779   11.9966 N.ar    1  UNL1       -0.1988
      7 C          64.3993   90.7247   13.7343 C.ar    1  UNL1        0.0854
      8 C          63.9744   91.1757   15.1004 C.ar    1  UNL1        0.0193
      9 C          64.9440   91.9001   15.9863 C.ar    1  UNL1        0.0030
     10 C          66.3386   92.1736   15.5063 C.ar    1  UNL1        0.0177
     11 C          67.3082   92.8980   16.3923 C.ar    1  UNL1        0.0015
     12 C          68.7027   93.1714   15.9123 C.ar    1  UNL1        0.0001
     13 C          69.1277   92.7204   14.5462 C.ar    1  UNL1        0.0015
     14 C          68.1580   91.9959   13.6602 C.ar    1  UNL1        0.0191
     15 C          66.7635   91.7225   14.1403 C.ar    1  UNL1        0.0813
     16 N          65.7938   90.9981   13.2543 N.ar    1  UNL1       -0.2452
     17 N          60.5206   87.8268   10.1905 N.pl3   1  UNL1       -0.2823
     18 H          59.5591   88.0317   10.2419 H       1  UNL1        0.1551
     19 C          62.7293   84.9425    8.5927 C.ar    1  UNL1        0.2262
     20 C          62.2339   85.9793    9.5570 C.ar    1  UNL1        0.0724
     21 C          61.0160   86.7901    9.2262 C.ar    1  UNL1        0.0567
     22 C          60.2936   86.5642    7.9312 C.ar    1  UNL1        0.0356
     23 C          60.7890   85.5275    6.9670 C.ar    1  UNL1        0.1033
     24 N          62.0068   84.7167    7.2977 N.ar    1  UNL1       -0.2101
     25 C          63.9825   83.3085   10.1769 C.3     1  UNL1        0.2542
     26 O          63.9472   84.1317    8.9234 O.3     1  UNL1       -0.4561
     27 N          64.2545   87.7289   13.8028 N.pl3   1  UNL1       -0.3172
     28 H          65.1077   88.1192   14.1013 H       1  UNL1        0.1482
     29 C          63.8519   86.3610   14.2682 C.3     1  UNL1        0.0998
     30 C          63.9238   85.0985   13.4614 C.3     1  UNL1        0.0271
     31 C          63.4230   83.9726   14.3168 C.3     1  UNL1        0.0604
     32 C          63.0417   84.5392   15.6522 C.3     1  UNL1        0.1412
     33 O          62.4918   83.7657   16.8138 O.3     1  UNL1       -0.3818
     34 C          63.3068   86.0153   15.6222 C.3     1  UNL1        0.1549
     35 O          63.0685   86.9769   16.7485 O.3     1  UNL1       -0.3803
     36 H          62.3295   84.3686   17.5561 H       1  UNL1        0.2104
     37 H          62.7118   86.4978   17.5128 H       1  UNL1        0.2105
     38 C          63.3215   82.5329   13.9083 C.3     1  UNL1        0.1396
     39 O          62.4884   81.5814   14.7150 O.3     1  UNL1       -0.3819
     40 H          62.8820   81.4732   15.5950 H       1  UNL1        0.2104
@<TRIPOS>BOND
     1    25    26    1
     2    26    19    1
     3    19    20   ar
     4    20    21   ar
     5    21    17    1
     6    17     1    1
     7     1     2   ar
     8     2     3   ar
     9     3     4   ar
    10     4     7    1
    11     7     8   ar
    12     8     9   ar
    13     9    10   ar
    14    10    11   ar
    15    11    12   ar
    16    12    13   ar
    17    13    14   ar
    18    14    15   ar
    19    15    16   ar
    20     4     5   ar
    21     5    27    1
    22    29    27    1
    23    29    30    1
    24    30    31    1
    25    31    38    1
    26    38    39    1
    27    31    32    1
    28    32    33    1
    29    32    34    1
    30    34    35    1
    31     5     6   ar
    32    21    22   ar
    33    22    23   ar
    34    23    24   ar
    35    24    19   ar
    36     6     1   ar
    37    16     7   ar
    38    34    29    1
    39    15    10   ar
    40    17    18    1
    41    27    28    1
    42    39    40    1
    43    33    36    1
    44    35    37    1
@<TRIPOS>MOLECULE
*****
 40 44 0 0 0
SMALL
GASTEIGER

@<TRIPOS>ATOM
      1 C          62.6292   89.1367   10.8841 C.ar    1  UNL1        0.2218
      2 N          62.1679   88.2385    9.7748 N.ar    1  UNL1       -0.2119
      3 C          62.2253   86.7491    9.9427 C.ar    1  UNL1        0.1061
      4 C          62.7440   86.1578   11.2199 C.ar    1  UNL1        0.0683
      5 C          63.2054   87.0559   12.3292 C.ar    1  UNL1        0.1343
      6 N          63.1480   88.5454   12.1613 N.ar    1  UNL1       -0.1988
      7 C          62.8014   84.6683   11.3878 C.ar    1  UNL1        0.0854
      8 C          63.3967   83.8142   10.3079 C.ar    1  UNL1        0.0193
      9 C          63.4541   82.3247   10.4758 C.ar    1  UNL1        0.0030
     10 C          62.9162   81.6893   11.7237 C.ar    1  UNL1        0.0177
     11 C          62.9736   80.1999   11.8916 C.ar    1  UNL1        0.0015
     12 C          62.4357   79.5646   13.1393 C.ar    1  UNL1        0.0001
     13 C          61.8405   80.4187   14.2192 C.ar    1  UNL1        0.0015
     14 C          61.7830   81.9081   14.0513 C.ar    1  UNL1        0.0191
     15 C          62.3209   82.5434   12.8036 C.ar    1  UNL1        0.0813
     16 N          62.2635   84.0329   12.6356 N.ar    1  UNL1       -0.2452
     17 N          62.5719   90.6262   10.7162 N.pl3   1  UNL1       -0.2823
     18 H          61.7939   91.0427   10.2796 H       1  UNL1        0.1551
     19 C          65.1701   92.3505   13.1709 C.ar    1  UNL1        0.2262
     20 C          64.0423   91.4957   12.6737 C.ar    1  UNL1        0.0724
     21 C          63.6997   91.4810   11.2134 C.ar    1  UNL1        0.0567
     22 C          64.4851   92.3210   10.2503 C.ar    1  UNL1        0.0356
     23 C          65.6130   93.1758   10.7475 C.ar    1  UNL1        0.1033
     24 N          65.9555   93.1906   12.2077 N.ar    1  UNL1       -0.2101
     25 C          66.7631   93.0475   15.1014 C.3     1  UNL1        0.2542
     26 O          65.5127   92.3653   14.6312 O.3     1  UNL1       -0.4561
     27 N          63.7241   86.4645   13.6064 N.pl3   1  UNL1       -0.3172
     28 H          64.1838   85.5940   13.5948 H       1  UNL1        0.1482
     29 C          63.5425   87.1995   14.9013 C.3     1  UNL1        0.0998
     30 C          63.6955   88.6777   15.1051 C.3     1  UNL1        0.0271
     31 C          63.4235   88.9772   16.5495 C.3     1  UNL1        0.0604
     32 C          63.1024   87.6840   17.2385 C.3     1  UNL1        0.1412
     33 O          62.7667   87.5185   18.6910 O.3     1  UNL1       -0.3818
     34 C          63.1759   86.5854   16.2198 C.3     1  UNL1        0.1549
     35 O          62.9267   85.1284   16.4749 O.3     1  UNL1       -0.3803
     36 H          62.6011   86.5816   18.8799 H       1  UNL1        0.2104
     37 H          62.7071   84.9969   17.4106 H       1  UNL1        0.2105
     38 C          63.4653   90.3319   17.1921 C.3     1  UNL1        0.1396
     39 O          63.4349   91.5668   16.3413 O.3     1  UNL1       -0.3819
     40 H          64.2454   91.6138   15.8105 H       1  UNL1        0.2104
@<TRIPOS>BOND
     1    25    26    1
     2    26    19    1
     3    19    20   ar
     4    20    21   ar
     5    21    17    1
     6    17     1    1
     7     1     2   ar
     8     2     3   ar
     9     3     4   ar
    10     4     7    1
    11     7     8   ar
    12     8     9   ar
    13     9    10   ar
    14    10    11   ar
    15    11    12   ar
    16    12    13   ar
    17    13    14   ar
    18    14    15   ar
    19    15    16   ar
    20     4     5   ar
    21     5    27    1
    22    29    27    1
    23    29    30    1
    24    30    31    1
    25    31    38    1
    26    38    39    1
    27    31    32    1
    28    32    33    1
    29    32    34    1
    30    34    35    1
    31     5     6   ar
    32    21    22   ar
    33    22    23   ar
    34    23    24   ar
    35    24    19   ar
    36     6     1   ar
    37    16     7   ar
    38    34    29    1
    39    15    10   ar
    40    17    18    1
    41    27    28    1
    42    39    40    1
    43    33    36    1
    44    35    37    1
@<TRIPOS>MOLECULE
*****
 40 44 0 0 0
SMALL
GASTEIGER

@<TRIPOS>ATOM
      1 C          61.6526   88.2687   10.4263 C.ar    1  UNL1        0.2218
      2 N          61.7935   89.7598   10.3443 N.ar    1  UNL1       -0.2119
      3 C          62.6107   90.4933   11.3661 C.ar    1  UNL1        0.1061
      4 C          63.2871   89.7356   12.4699 C.ar    1  UNL1        0.0683
      5 C          63.1462   88.2445   12.5519 C.ar    1  UNL1        0.1343
      6 N          62.3289   87.5111   11.5301 N.ar    1  UNL1       -0.1988
      7 C          64.1044   90.4691   13.4917 C.ar    1  UNL1        0.0854
      8 C          63.5313   90.7506   14.8490 C.ar    1  UNL1        0.0193
      9 C          64.3486   91.4840   15.8709 C.ar    1  UNL1        0.0030
     10 C          65.7390   91.9359   15.5354 C.ar    1  UNL1        0.0177
     11 C          66.5563   92.6693   16.5572 C.ar    1  UNL1        0.0015
     12 C          67.9466   93.1212   16.2218 C.ar    1  UNL1        0.0001
     13 C          68.5198   92.8397   14.8645 C.ar    1  UNL1        0.0015
     14 C          67.7025   92.1063   13.8426 C.ar    1  UNL1        0.0191
     15 C          66.3121   91.6544   14.1781 C.ar    1  UNL1        0.0813
     16 N          65.4948   90.9210   13.1562 N.ar    1  UNL1       -0.2452
     17 N          60.8352   87.5353    9.4045 N.pl3   1  UNL1       -0.2823
     18 H          59.8973   87.7908    9.2487 H       1  UNL1        0.1551
     19 C          61.3915   84.7977    6.5855 C.ar    1  UNL1        0.2262
     20 C          60.7798   85.9204    7.3699 C.ar    1  UNL1        0.0724
     21 C          61.4470   86.4126    8.6200 C.ar    1  UNL1        0.0567
     22 C          62.7259   85.7821    9.0856 C.ar    1  UNL1        0.0356
     23 C          63.3377   84.6595    8.3011 C.ar    1  UNL1        0.1033
     24 N          62.6705   84.1673    7.0511 N.ar    1  UNL1       -0.2101
     25 C          61.5345   84.0729    4.0947 C.3     1  UNL1        0.2542
     26 O          60.7244   84.3055    5.3355 O.3     1  UNL1       -0.4561
     27 N          63.8226   87.4869   13.6558 N.pl3   1  UNL1       -0.3172
     28 H          64.3908   87.9632   14.3035 H       1  UNL1        0.1482
     29 C          63.6333   86.0035   13.7728 C.3     1  UNL1        0.0998
     30 C          63.1558   85.0871   12.6855 C.3     1  UNL1        0.0271
     31 C          63.1157   83.6932   13.2383 C.3     1  UNL1        0.0604
     32 C          63.5683   83.7482   14.6673 C.3     1  UNL1        0.1412
     33 O          63.6813   82.5804   15.6019 O.3     1  UNL1       -0.3818
     34 C          63.8883   85.1759   14.9976 C.3     1  UNL1        0.1549
     35 O          64.3773   85.6866   16.3205 O.3     1  UNL1       -0.3803
     36 H          63.9967   82.8874   16.4663 H       1  UNL1        0.2104
     37 H          64.4582   84.9468   16.9427 H       1  UNL1        0.2105
     38 C          62.6964   82.4609   12.4929 C.3     1  UNL1        0.1396
     39 O          62.4296   81.1874   13.2393 O.3     1  UNL1       -0.3819
     40 H          63.2548   80.8653   13.6345 H       1  UNL1        0.2104
@<TRIPOS>BOND
     1    25    26    1
     2    26    19    1
     3    19    20   ar
     4    20    21   ar
     5    21    17    1
     6    17     1    1
     7     1     2   ar
     8     2     3   ar
     9     3     4   ar
    10     4     7    1
    11     7     8   ar
    12     8     9   ar
    13     9    10   ar
    14    10    11   ar
    15    11    12   ar
    16    12    13   ar
    17    13    14   ar
    18    14    15   ar
    19    15    16   ar
    20     4     5   ar
    21     5    27    1
    22    29    27    1
    23    29    30    1
    24    30    31    1
    25    31    38    1
    26    38    39    1
    27    31    32    1
    28    32    33    1
    29    32    34    1
    30    34    35    1
    31     5     6   ar
    32    21    22   ar
    33    22    23   ar
    34    23    24   ar
    35    24    19   ar
    36     6     1   ar
    37    16     7   ar
    38    34    29    1
    39    15    10   ar
    40    17    18    1
    41    27    28    1
    42    39    40    1
    43    33    36    1
    44    35    37    1
@<TRIPOS>MOLECULE
*****
 40 44 0 0 0
SMALL
GASTEIGER

@<TRIPOS>ATOM
      1 C          63.0578   90.3312   12.5422 C.ar    1  UNL1        0.2218
      2 N          63.0037   90.7773   11.1111 N.ar    1  UNL1       -0.2119
      3 C          62.5134   89.8370   10.0503 C.ar    1  UNL1        0.1061
      4 C          62.0772   88.4504   10.4207 C.ar    1  UNL1        0.0683
      5 C          62.1312   88.0043   11.8518 C.ar    1  UNL1        0.1343
      6 N          62.6216   88.9447   12.9125 N.ar    1  UNL1       -0.1988
      7 C          61.5868   87.5100    9.3599 C.ar    1  UNL1        0.0854
      8 C          60.1286   87.4681    9.0106 C.ar    1  UNL1        0.0193
      9 C          59.6382   86.5277    7.9499 C.ar    1  UNL1        0.0030
     10 C          60.6060   85.6291    7.2385 C.ar    1  UNL1        0.0177
     11 C          60.1156   84.6887    6.1778 C.ar    1  UNL1        0.0015
     12 C          61.0834   83.7902    5.4664 C.ar    1  UNL1        0.0001
     13 C          62.5415   83.8321    5.8158 C.ar    1  UNL1        0.0015
     14 C          63.0319   84.7725    6.8765 C.ar    1  UNL1        0.0191
     15 C          62.0642   85.6710    7.5878 C.ar    1  UNL1        0.0813
     16 N          62.5545   86.6115    8.6486 N.ar    1  UNL1       -0.2452
     17 N          63.5482   91.2717   13.6029 N.pl3   1  UNL1       -0.2823
     18 H          62.9471   91.5477   14.3321 H       1  UNL1        0.1551
     19 C          67.2848   92.0873   14.6623 C.ar    1  UNL1        0.2262
     20 C          65.8787   91.5675   14.7127 C.ar    1  UNL1        0.0724
     21 C          64.9544   91.7914   13.5526 C.ar    1  UNL1        0.0567
     22 C          65.4362   92.5350   12.3424 C.ar    1  UNL1        0.0356
     23 C          66.8424   93.0548   12.2920 C.ar    1  UNL1        0.1033
     24 N          67.7667   92.8310   13.4520 N.ar    1  UNL1       -0.2101
     25 C          69.2412   92.8953   16.1689 C.3     1  UNL1        0.2542
     26 O          68.2091   91.8635   15.8223 O.3     1  UNL1       -0.4561
     27 N          61.6950   86.6177   12.2221 N.pl3   1  UNL1       -0.3172
     28 H          60.7384   86.3850   12.2179 H       1  UNL1        0.1482
     29 C          62.7162   85.5857   12.5989 C.3     1  UNL1        0.0998
     30 C          62.8200   84.2003   12.0332 C.3     1  UNL1        0.0271
     31 C          63.9809   83.5162   12.6922 C.3     1  UNL1        0.0604
     32 C          64.5946   84.4788   13.6653 C.3     1  UNL1        0.1412
     33 O          65.7815   84.2097   14.5421 O.3     1  UNL1       -0.3818
     34 C          63.8130   85.7577   13.6076 C.3     1  UNL1        0.1549
     35 O          64.0810   86.9921   14.4167 O.3     1  UNL1       -0.3803
     36 H          65.9740   84.9963   15.0761 H       1  UNL1        0.2104
     37 H          64.8466   86.8411   14.9929 H       1  UNL1        0.2105
     38 C          64.4464   82.1156   12.4251 C.3     1  UNL1        0.1396
     39 O          63.8971   80.9761   13.2313 O.3     1  UNL1       -0.3819
     40 H          64.1796   81.0677   14.1547 H       1  UNL1        0.2104
@<TRIPOS>BOND
     1    25    26    1
     2    26    19    1
     3    19    20   ar
     4    20    21   ar
     5    21    17    1
     6    17     1    1
     7     1     2   ar
     8     2     3   ar
     9     3     4   ar
    10     4     7    1
    11     7     8   ar
    12     8     9   ar
    13     9    10   ar
    14    10    11   ar
    15    11    12   ar
    16    12    13   ar
    17    13    14   ar
    18    14    15   ar
    19    15    16   ar
    20     4     5   ar
    21     5    27    1
    22    29    27    1
    23    29    30    1
    24    30    31    1
    25    31    38    1
    26    38    39    1
    27    31    32    1
    28    32    33    1
    29    32    34    1
    30    34    35    1
    31     5     6   ar
    32    21    22   ar
    33    22    23   ar
    34    23    24   ar
    35    24    19   ar
    36     6     1   ar
    37    16     7   ar
    38    34    29    1
    39    15    10   ar
    40    17    18    1
    41    27    28    1
    42    39    40    1
    43    33    36    1
    44    35    37    1
