@<TRIPOS>MOLECULE
*****
 27 29 0 0 0
SMALL
GASTEIGER

@<TRIPOS>ATOM
      1 N          60.7371   86.6242   10.6518 N.am    1  UNL1       -0.3011
      2 C          61.9156   85.7083   10.5015 C.2     1  UNL1        0.2650
      3 O          62.6299   85.6150    9.1859 O.2     1  UNL1       -0.2684
      4 H          60.2683   86.6854   11.5153 H       1  UNL1        0.1497
      5 C          62.3797   84.8858   11.6669 C.ar    1  UNL1        0.1517
      6 N          62.1811   83.4089   11.8384 N.ar    1  UNL1       -0.2260
      7 C          62.8025   83.0061   13.1429 C.ar    1  UNL1        0.1239
      8 N          63.3850   84.2341   13.7776 N.ar    1  UNL1       -0.2921
      9 C          64.1196   84.4445   15.0683 C.ar    1  UNL1        0.0811
     10 C          64.5929   85.8166   15.4468 C.ar    1  UNL1        0.0191
     11 C          64.3316   86.9783   14.5346 C.ar    1  UNL1        0.0031
     12 C          63.5970   86.7679   13.2438 C.ar    1  UNL1        0.0193
     13 C          63.1237   85.3958   12.8653 C.ar    1  UNL1        0.0872
     14 C          62.8355   81.6190   13.7127 C.3     1  UNL1        0.0573
     15 C          64.1349   80.8744   13.7993 C.3     1  UNL1        0.0079
     16 C          61.5694   80.9762   14.1959 C.3     1  UNL1        0.0079
     17 N          59.3451   89.0917    7.1557 N.3     1  UNL1       -0.2725
     18 C          59.0338   87.6254    7.2099 C.3     1  UNL1        0.0738
     19 C          59.4979   86.8029    8.3753 C.3     1  UNL1        0.0369
     20 C          60.2731   87.4467    9.4864 C.3     1  UNL1        0.0747
     21 C          60.5844   88.9130    9.4321 C.3     1  UNL1        0.0369
     22 C          60.1203   89.7355    8.2667 C.3     1  UNL1        0.0738
     23 C          58.8811   89.9143    5.9903 C.3     1  UNL1        0.0747
     24 C          59.8168   90.8911    5.3419 C.3     1  UNL1        0.0494
     25 C          59.3001   92.2096    4.8475 C.3     1  UNL1        0.1437
     26 C          60.1431   93.1457    2.5753 C.3     1  UNL1        0.1741
     27 O          59.0962   92.4320    3.3781 O.3     1  UNL1       -0.3511
@<TRIPOS>BOND
     1    26    27    1
     2    27    25    1
     3    25    24    1
     4    24    23    1
     5    23    17    1
     6    17    18    1
     7    18    19    1
     8    19    20    1
     9    20     1    1
    10     1     2   am
    11     2     3    2
    12     2     5    1
    13     5     6   ar
    14     6     7   ar
    15     7    14    1
    16    14    15    1
    17    14    16    1
    18     7     8   ar
    19     8     9   ar
    20     9    10   ar
    21    10    11   ar
    22    11    12   ar
    23    12    13   ar
    24    20    21    1
    25    21    22    1
    26    22    17    1
    27    13     5   ar
    28    13     8   ar
    29     1     4    1
@<TRIPOS>MOLECULE
*****
 27 29 0 0 0
SMALL
GASTEIGER

@<TRIPOS>ATOM
      1 N          61.0137   87.1589   10.7381 N.am    1  UNL1       -0.3011
      2 C          62.1133   86.1487   10.5946 C.2     1  UNL1        0.2650
      3 O          62.5995   85.7582    9.2305 O.2     1  UNL1       -0.2684
      4 H          60.6945   87.4153   11.6334 H       1  UNL1        0.1497
      5 C          62.7264   85.5291   11.8153 C.ar    1  UNL1        0.1517
      6 N          63.2709   86.2693   13.0009 N.ar    1  UNL1       -0.2260
      7 C          63.7837   85.2581   13.9830 C.ar    1  UNL1        0.1239
      8 N          63.5562   83.8930   13.4044 N.ar    1  UNL1       -0.2921
      9 C          63.8597   82.5192   13.9244 C.ar    1  UNL1        0.0811
     10 C          63.5096   81.3128   13.1046 C.ar    1  UNL1        0.0191
     11 C          62.8562   81.4803   11.7649 C.ar    1  UNL1        0.0031
     12 C          62.5527   82.8541   11.2449 C.ar    1  UNL1        0.0193
     13 C          62.9028   84.0605   12.0647 C.ar    1  UNL1        0.0872
     14 C          64.4135   85.5592   15.3107 C.3     1  UNL1        0.0573
     15 C          63.5654   85.6205   16.5465 C.3     1  UNL1        0.0079
     16 C          65.8913   85.7989   15.4027 C.3     1  UNL1        0.0079
     17 N          59.1742   89.0177    7.0760 N.3     1  UNL1       -0.2725
     18 C          60.0063   89.8528    8.0034 C.3     1  UNL1        0.0738
     19 C          60.6195   89.2332    9.2241 C.3     1  UNL1        0.0369
     20 C          60.4005   87.7785    9.5174 C.3     1  UNL1        0.0747
     21 C          59.5683   86.9434    8.5900 C.3     1  UNL1        0.0369
     22 C          58.9551   87.5630    7.3693 C.3     1  UNL1        0.0738
     23 C          58.5609   89.6372    5.8553 C.3     1  UNL1        0.0747
     24 C          58.6913   91.1124    5.6169 C.3     1  UNL1        0.0494
     25 C          59.6634   91.6240    4.5955 C.3     1  UNL1        0.1437
     26 C          60.2419   93.2756    2.6751 C.3     1  UNL1        0.1741
     27 O          59.3197   92.8288    3.7706 O.3     1  UNL1       -0.3511
@<TRIPOS>BOND
     1    26    27    1
     2    27    25    1
     3    25    24    1
     4    24    23    1
     5    23    17    1
     6    17    18    1
     7    18    19    1
     8    19    20    1
     9    20     1    1
    10     1     2   am
    11     2     3    2
    12     2     5    1
    13     5     6   ar
    14     6     7   ar
    15     7    14    1
    16    14    15    1
    17    14    16    1
    18     7     8   ar
    19     8     9   ar
    20     9    10   ar
    21    10    11   ar
    22    11    12   ar
    23    12    13   ar
    24    20    21    1
    25    21    22    1
    26    22    17    1
    27    13     5   ar
    28    13     8   ar
    29     1     4    1
@<TRIPOS>MOLECULE
*****
 27 29 0 0 0
SMALL
GASTEIGER

@<TRIPOS>ATOM
      1 N          65.1788   90.1123   14.1275 N.am    1  UNL1       -0.3011
      2 C          64.1598   89.2029   13.5071 C.2     1  UNL1        0.2650
      3 O          63.4297   89.6293   12.2681 O.2     1  UNL1       -0.2684
      4 H          65.6580   89.8325   14.9407 H       1  UNL1        0.1497
      5 C          63.8710   87.8673   14.1257 C.ar    1  UNL1        0.1517
      6 N          63.9159   86.5424   13.4239 N.ar    1  UNL1       -0.2260
      7 C          63.5593   85.4784   14.4192 C.ar    1  UNL1        0.1239
      8 N          63.2940   86.1457   15.7362 N.ar    1  UNL1       -0.2921
      9 C          62.9020   85.5996   17.0771 C.ar    1  UNL1        0.0811
     10 C          62.7026   86.5301   18.2366 C.ar    1  UNL1        0.0191
     11 C          62.8952   88.0065   18.0552 C.ar    1  UNL1        0.0031
     12 C          63.2873   88.5526   16.7143 C.ar    1  UNL1        0.0193
     13 C          63.4867   87.6221   15.5548 C.ar    1  UNL1        0.0872
     14 C          63.4815   84.0056   14.1457 C.3     1  UNL1        0.0573
     15 C          62.3911   83.1839   14.7668 C.3     1  UNL1        0.0079
     16 C          64.4942   83.3544   13.2510 C.3     1  UNL1        0.0079
     17 N          66.0450   94.1192   12.2717 N.3     1  UNL1       -0.2725
     18 C          66.4900   93.8306   13.6747 C.3     1  UNL1        0.0738
     19 C          66.2013   92.4950   14.2934 C.3     1  UNL1        0.0369
     20 C          65.4675   91.4480   13.5089 C.3     1  UNL1        0.0747
     21 C          65.0225   91.7365   12.1058 C.3     1  UNL1        0.0369
     22 C          65.3113   93.0722   11.4872 C.3     1  UNL1        0.0738
     23 C          66.3338   95.4548   11.6530 C.3     1  UNL1        0.0747
     24 C          66.1500   95.6533   10.1776 C.3     1  UNL1        0.0494
     25 C          67.2489   95.2787    9.2278 C.3     1  UNL1        0.1437
     26 C          68.4101   92.9546    9.2077 C.3     1  UNL1        0.1741
     27 O          68.3579   94.3767    9.6821 O.3     1  UNL1       -0.3511
@<TRIPOS>BOND
     1    26    27    1
     2    27    25    1
     3    25    24    1
     4    24    23    1
     5    23    17    1
     6    17    18    1
     7    18    19    1
     8    19    20    1
     9    20     1    1
    10     1     2   am
    11     2     3    2
    12     2     5    1
    13     5     6   ar
    14     6     7   ar
    15     7    14    1
    16    14    15    1
    17    14    16    1
    18     7     8   ar
    19     8     9   ar
    20     9    10   ar
    21    10    11   ar
    22    11    12   ar
    23    12    13   ar
    24    20    21    1
    25    21    22    1
    26    22    17    1
    27    13     5   ar
    28    13     8   ar
    29     1     4    1
@<TRIPOS>MOLECULE
*****
 27 29 0 0 0
SMALL
GASTEIGER

@<TRIPOS>ATOM
      1 N          64.2048   87.2542   13.4449 N.am    1  UNL1       -0.3011
      2 C          64.0340   88.3705   14.4323 C.2     1  UNL1        0.2650
      3 O          63.3081   88.1264   15.7220 O.2     1  UNL1       -0.2684
      4 H          64.6812   87.4143   12.5984 H       1  UNL1        0.1497
      5 C          64.5891   89.7308   14.1298 C.ar    1  UNL1        0.1517
      6 N          65.4691   90.5445   15.0317 N.ar    1  UNL1       -0.2260
      7 C          65.7855   91.8328   14.3316 C.ar    1  UNL1        0.1239
      8 N          65.1011   91.8153   12.9969 N.ar    1  UNL1       -0.2921
      9 C          65.0556   92.8144   11.8791 C.ar    1  UNL1        0.0811
     10 C          64.2708   92.5145   10.6365 C.ar    1  UNL1        0.0191
     11 C          63.5314   91.2153   10.5118 C.ar    1  UNL1        0.0031
     12 C          63.5768   90.2162   11.6297 C.ar    1  UNL1        0.0193
     13 C          64.3616   90.5162   12.8722 C.ar    1  UNL1        0.0872
     14 C          66.6368   92.9436   14.8713 C.3     1  UNL1        0.0573
     15 C          67.3389   92.7792   16.1867 C.3     1  UNL1        0.0079
     16 C          66.7861   94.2188   14.0958 C.3     1  UNL1        0.0079
     17 N          62.5396   83.1734   14.3524 N.3     1  UNL1       -0.2725
     18 C          62.3256   83.7870   13.0005 C.3     1  UNL1        0.0738
     19 C          62.8807   85.1473   12.6980 C.3     1  UNL1        0.0369
     20 C          63.6497   85.8939   13.7474 C.3     1  UNL1        0.0747
     21 C          63.8637   85.2803   15.0993 C.3     1  UNL1        0.0369
     22 C          63.3086   83.9200   15.4018 C.3     1  UNL1        0.0738
     23 C          61.9845   81.8131   14.6550 C.3     1  UNL1        0.0747
     24 C          61.6605   80.8693   13.5351 C.3     1  UNL1        0.0494
     25 C          62.7518   80.3713   12.6345 C.3     1  UNL1        0.1437
     26 C          63.7172   81.8049   10.6947 C.3     1  UNL1        0.1741
     27 O          62.7624   80.7570   11.1850 O.3     1  UNL1       -0.3511
@<TRIPOS>BOND
     1    26    27    1
     2    27    25    1
     3    25    24    1
     4    24    23    1
     5    23    17    1
     6    17    18    1
     7    18    19    1
     8    19    20    1
     9    20     1    1
    10     1     2   am
    11     2     3    2
    12     2     5    1
    13     5     6   ar
    14     6     7   ar
    15     7    14    1
    16    14    15    1
    17    14    16    1
    18     7     8   ar
    19     8     9   ar
    20     9    10   ar
    21    10    11   ar
    22    11    12   ar
    23    12    13   ar
    24    20    21    1
    25    21    22    1
    26    22    17    1
    27    13     5   ar
    28    13     8   ar
    29     1     4    1
@<TRIPOS>MOLECULE
*****
 27 29 0 0 0
SMALL
GASTEIGER

@<TRIPOS>ATOM
      1 N          64.9214   88.7444   14.2685 N.am    1  UNL1       -0.3011
      2 C          64.2005   89.8689   13.5858 C.2     1  UNL1        0.2650
      3 O          62.7629   89.7070   13.1896 O.2     1  UNL1       -0.2684
      4 H          65.8650   88.8506   14.5286 H       1  UNL1        0.1497
      5 C          64.9172   91.1551   13.2994 C.ar    1  UNL1        0.1517
      6 N          64.8608   91.9289   12.0157 N.ar    1  UNL1       -0.2260
      7 C          65.7249   93.1453   12.1694 C.ar    1  UNL1        0.1239
      8 N          66.3155   93.1232   13.5481 N.ar    1  UNL1       -0.2921
      9 C          67.2433   94.0642   14.2578 C.ar    1  UNL1        0.0811
     10 C          67.6719   93.7751   15.6658 C.ar    1  UNL1        0.0191
     11 C          67.1727   92.5450   16.3642 C.ar    1  UNL1        0.0031
     12 C          66.2449   91.6040   15.6545 C.ar    1  UNL1        0.0193
     13 C          65.8163   91.8931   14.2465 C.ar    1  UNL1        0.0872
     14 C          65.9577   94.1989   11.1274 C.3     1  UNL1        0.0573
     15 C          65.7393   95.6450   11.4610 C.3     1  UNL1        0.0079
     16 C          66.4089   93.8065    9.7518 C.3     1  UNL1        0.0079
     17 N          62.7712   84.8860   15.1277 N.3     1  UNL1       -0.2725
     18 C          63.1464   85.2377   13.7186 C.3     1  UNL1        0.0738
     19 C          63.8632   86.5239   13.4323 C.3     1  UNL1        0.0369
     20 C          64.2047   87.4582   14.5549 C.3     1  UNL1        0.0747
     21 C          63.8294   87.1065   15.9639 C.3     1  UNL1        0.0369
     22 C          63.1127   85.8203   16.2503 C.3     1  UNL1        0.0738
     23 C          62.0544   83.5998   15.4142 C.3     1  UNL1        0.0747
     24 C          62.3832   82.3665   14.6263 C.3     1  UNL1        0.0494
     25 C          61.2969   81.3996   14.2585 C.3     1  UNL1        0.1437
     26 C          62.7200   80.1906   12.4522 C.3     1  UNL1        0.1741
     27 O          61.6272   80.1612   13.4793 O.3     1  UNL1       -0.3511
@<TRIPOS>BOND
     1    26    27    1
     2    27    25    1
     3    25    24    1
     4    24    23    1
     5    23    17    1
     6    17    18    1
     7    18    19    1
     8    19    20    1
     9    20     1    1
    10     1     2   am
    11     2     3    2
    12     2     5    1
    13     5     6   ar
    14     6     7   ar
    15     7    14    1
    16    14    15    1
    17    14    16    1
    18     7     8   ar
    19     8     9   ar
    20     9    10   ar
    21    10    11   ar
    22    11    12   ar
    23    12    13   ar
    24    20    21    1
    25    21    22    1
    26    22    17    1
    27    13     5   ar
    28    13     8   ar
    29     1     4    1
@<TRIPOS>MOLECULE
*****
 27 29 0 0 0
SMALL
GASTEIGER

@<TRIPOS>ATOM
      1 N          63.8570   86.2763   13.0824 N.am    1  UNL1       -0.3011
      2 C          63.9154   87.2178   14.2488 C.2     1  UNL1        0.2650
      3 O          63.6875   86.7040   15.6394 O.2     1  UNL1       -0.2684
      4 H          64.0066   86.6134   12.1696 H       1  UNL1        0.1497
      5 C          64.2019   88.6730   14.0243 C.ar    1  UNL1        0.1517
      6 N          64.9645   89.5744   14.9495 N.ar    1  UNL1       -0.2260
      7 C          65.0099   90.9407   14.3322 C.ar    1  UNL1        0.1239
      8 N          64.2754   90.8838   13.0255 N.ar    1  UNL1       -0.2921
      9 C          63.9968   91.9270   11.9844 C.ar    1  UNL1        0.0811
     10 C          63.2189   91.5687   10.7531 C.ar    1  UNL1        0.0191
     11 C          62.7195   90.1671   10.5628 C.ar    1  UNL1        0.0031
     12 C          62.9981   89.1239   11.6039 C.ar    1  UNL1        0.0193
     13 C          63.7760   89.4822   12.8353 C.ar    1  UNL1        0.0872
     14 C          65.6733   92.1515   14.9186 C.3     1  UNL1        0.0573
     15 C          65.4910   92.4769   16.3715 C.3     1  UNL1        0.0079
     16 C          66.5190   93.0369   14.0522 C.3     1  UNL1        0.0079
     17 N          62.9977   81.9108   13.7558 N.3     1  UNL1       -0.2725
     18 C          63.6554   82.7205   14.8335 C.3     1  UNL1        0.0738
     19 C          63.9419   84.1757   14.6090 C.3     1  UNL1        0.0369
     20 C          63.5706   84.8211   13.3069 C.3     1  UNL1        0.0747
     21 C          62.9128   84.0113   12.2291 C.3     1  UNL1        0.0369
     22 C          62.6263   82.5561   12.4536 C.3     1  UNL1        0.0738
     23 C          62.7112   80.4555   13.9801 C.3     1  UNL1        0.0747
     24 C          61.3251   79.9227   13.7682 C.3     1  UNL1        0.0494
     25 C          60.1368   80.7342   14.1918 C.3     1  UNL1        0.1437
     26 C          58.7862   78.5505   14.5890 C.3     1  UNL1        0.1741
     27 O          58.8760   80.0474   14.6263 O.3     1  UNL1       -0.3511
@<TRIPOS>BOND
     1    26    27    1
     2    27    25    1
     3    25    24    1
     4    24    23    1
     5    23    17    1
     6    17    18    1
     7    18    19    1
     8    19    20    1
     9    20     1    1
    10     1     2   am
    11     2     3    2
    12     2     5    1
    13     5     6   ar
    14     6     7   ar
    15     7    14    1
    16    14    15    1
    17    14    16    1
    18     7     8   ar
    19     8     9   ar
    20     9    10   ar
    21    10    11   ar
    22    11    12   ar
    23    12    13   ar
    24    20    21    1
    25    21    22    1
    26    22    17    1
    27    13     5   ar
    28    13     8   ar
    29     1     4    1
@<TRIPOS>MOLECULE
*****
 27 29 0 0 0
SMALL
GASTEIGER

@<TRIPOS>ATOM
      1 N          63.6331   90.1071   12.5052 N.am    1  UNL1       -0.3011
      2 C          63.1393   90.3786   11.1149 C.2     1  UNL1        0.2650
      3 O          63.5212   91.6510   10.4186 O.2     1  UNL1       -0.2684
      4 H          63.3825   89.2720   12.9623 H       1  UNL1        0.1497
      5 C          62.2638   89.3775   10.4212 C.ar    1  UNL1        0.1517
      6 N          61.2893   89.6721    9.3196 N.ar    1  UNL1       -0.2260
      7 C          60.6323   88.3827    8.9249 C.ar    1  UNL1        0.1239
      8 N          61.2007   87.2912    9.7825 N.ar    1  UNL1       -0.2921
      9 C          60.9304   85.8170    9.8409 C.ar    1  UNL1        0.0811
     10 C          61.6685   84.9575   10.8240 C.ar    1  UNL1        0.0191
     11 C          62.6768   85.5723   11.7488 C.ar    1  UNL1        0.0031
     12 C          62.9471   87.0466   11.6905 C.ar    1  UNL1        0.0193
     13 C          62.2090   87.9060   10.7073 C.ar    1  UNL1        0.0872
     14 C          59.5898   88.2143    7.8595 C.3     1  UNL1        0.0573
     15 C          59.3388   89.3177    6.8747 C.3     1  UNL1        0.0079
     16 C          58.7984   86.9427    7.7788 C.3     1  UNL1        0.0079
     17 N          66.2597   93.1103   14.5863 N.3     1  UNL1       -0.2725
     18 C          65.5956   92.0209   15.3750 C.3     1  UNL1        0.0738
     19 C          64.7201   91.0198   14.6813 C.3     1  UNL1        0.0369
     20 C          64.5086   91.1082   13.1989 C.3     1  UNL1        0.0747
     21 C          65.1726   92.1977   12.4102 C.3     1  UNL1        0.0369
     22 C          66.0482   93.1988   13.1040 C.3     1  UNL1        0.0738
     23 C          67.1352   94.1115   15.2800 C.3     1  UNL1        0.0747
     24 C          68.4681   93.6917   15.8251 C.3     1  UNL1        0.0494
     25 C          69.1062   92.4202   15.3495 C.3     1  UNL1        0.1437
     26 C          69.0312   91.5795   12.8923 C.3     1  UNL1        0.1741
     27 O          69.7152   92.3532   13.9803 O.3     1  UNL1       -0.3511
@<TRIPOS>BOND
     1    26    27    1
     2    27    25    1
     3    25    24    1
     4    24    23    1
     5    23    17    1
     6    17    18    1
     7    18    19    1
     8    19    20    1
     9    20     1    1
    10     1     2   am
    11     2     3    2
    12     2     5    1
    13     5     6   ar
    14     6     7   ar
    15     7    14    1
    16    14    15    1
    17    14    16    1
    18     7     8   ar
    19     8     9   ar
    20     9    10   ar
    21    10    11   ar
    22    11    12   ar
    23    12    13   ar
    24    20    21    1
    25    21    22    1
    26    22    17    1
    27    13     5   ar
    28    13     8   ar
    29     1     4    1
@<TRIPOS>MOLECULE
*****
 27 29 0 0 0
SMALL
GASTEIGER

@<TRIPOS>ATOM
      1 N          63.3603   86.5572   12.9074 N.am    1  UNL1       -0.3011
      2 C          63.2946   85.4736   13.9427 C.2     1  UNL1        0.2650
      3 O          63.5833   85.7911   15.3799 O.2     1  UNL1       -0.2684
      4 H          63.1709   86.3488   11.9640 H       1  UNL1        0.1497
      5 C          62.9402   84.0726   13.5406 C.ar    1  UNL1        0.1517
      6 N          62.1390   83.0983   14.3522 N.ar    1  UNL1       -0.2260
      7 C          62.0284   81.8236   13.5694 C.ar    1  UNL1        0.1239
      8 N          62.7613   82.0100   12.2740 N.ar    1  UNL1       -0.2921
      9 C          62.9883   81.0937   11.1084 C.ar    1  UNL1        0.0811
     10 C          63.7788   81.5673    9.9249 C.ar    1  UNL1        0.0191
     11 C          64.3424   82.9573    9.9071 C.ar    1  UNL1        0.0031
     12 C          64.1154   83.8737   11.0727 C.ar    1  UNL1        0.0193
     13 C          63.3248   83.4000   12.2561 C.ar    1  UNL1        0.0872
     14 C          61.3109   80.5806   14.0055 C.3     1  UNL1        0.0573
     15 C          59.8273   80.6090   14.2252 C.3     1  UNL1        0.0079
     16 C          62.0768   79.3092   14.2218 C.3     1  UNL1        0.0079
     17 N          64.4236   90.7600   14.1138 N.3     1  UNL1       -0.2725
     18 C          63.6879   90.5115   12.8304 C.3     1  UNL1        0.0738
     19 C          63.3335   89.1105   12.4283 C.3     1  UNL1        0.0369
     20 C          63.7147   87.9581   13.3095 C.3     1  UNL1        0.0747
     21 C          64.4504   88.2066   14.5929 C.3     1  UNL1        0.0369
     22 C          64.8048   89.6075   14.9950 C.3     1  UNL1        0.0738
     23 C          64.7780   92.1609   14.5160 C.3     1  UNL1        0.0747
     24 C          66.2118   92.6018   14.5136 C.3     1  UNL1        0.0494
     25 C          67.0949   92.2753   13.3459 C.3     1  UNL1        0.1437
     26 C          66.0223   92.9252   11.0706 C.3     1  UNL1        0.1741
     27 O          67.0704   93.1416   12.1216 O.3     1  UNL1       -0.3511
@<TRIPOS>BOND
     1    26    27    1
     2    27    25    1
     3    25    24    1
     4    24    23    1
     5    23    17    1
     6    17    18    1
     7    18    19    1
     8    19    20    1
     9    20     1    1
    10     1     2   am
    11     2     3    2
    12     2     5    1
    13     5     6   ar
    14     6     7   ar
    15     7    14    1
    16    14    15    1
    17    14    16    1
    18     7     8   ar
    19     8     9   ar
    20     9    10   ar
    21    10    11   ar
    22    11    12   ar
    23    12    13   ar
    24    20    21    1
    25    21    22    1
    26    22    17    1
    27    13     5   ar
    28    13     8   ar
    29     1     4    1
@<TRIPOS>MOLECULE
*****
 27 29 0 0 0
SMALL
GASTEIGER

@<TRIPOS>ATOM
      1 N          62.9600   91.1261   10.1063 N.am    1  UNL1       -0.3011
      2 C          63.7223   91.1087   11.3982 C.2     1  UNL1        0.2650
      3 O          63.5550   89.9635   12.3522 O.2     1  UNL1       -0.2684
      4 H          63.0698   91.8778    9.4801 H       1  UNL1        0.1497
      5 C          64.6518   92.2366   11.7357 C.ar    1  UNL1        0.1517
      6 N          64.9866   93.3988   10.8486 N.ar    1  UNL1       -0.2260
      7 C          65.9514   94.2807   11.5843 C.ar    1  UNL1        0.1239
      8 N          66.2129   93.6635   12.9263 N.ar    1  UNL1       -0.2921
      9 C          67.0787   94.0887   14.0750 C.ar    1  UNL1        0.0811
     10 C          67.1412   93.2505   15.3174 C.ar    1  UNL1        0.0191
     11 C          66.3380   91.9871   15.4109 C.ar    1  UNL1        0.0031
     12 C          65.4722   91.5619   14.2622 C.ar    1  UNL1        0.0193
     13 C          65.4097   92.4001   13.0198 C.ar    1  UNL1        0.0872
     14 C          66.5498   95.5559   11.0688 C.3     1  UNL1        0.0573
     15 C          66.2506   96.8559   11.7549 C.3     1  UNL1        0.0079
     16 C          67.4472   95.5313    9.8672 C.3     1  UNL1        0.0079
     17 N          60.1716   87.7426    9.0936 N.3     1  UNL1       -0.2725
     18 C          59.8091   89.1499    8.7221 C.3     1  UNL1        0.0738
     19 C          60.7386   90.2778    9.0597 C.3     1  UNL1        0.0369
     20 C          62.0305   89.9983    9.7687 C.3     1  UNL1        0.0747
     21 C          62.3930   88.5910   10.1402 C.3     1  UNL1        0.0369
     22 C          61.4635   87.4631    9.8026 C.3     1  UNL1        0.0738
     23 C          59.2421   86.6147    8.7560 C.3     1  UNL1        0.0747
     24 C          59.4447   85.8277    7.4952 C.3     1  UNL1        0.0494
     25 C          60.8275   85.4226    7.0780 C.3     1  UNL1        0.1437
     26 C          62.3602   84.2096    5.3665 C.3     1  UNL1        0.1741
     27 O          61.0152   84.3912    6.0052 O.3     1  UNL1       -0.3511
@<TRIPOS>BOND
     1    26    27    1
     2    27    25    1
     3    25    24    1
     4    24    23    1
     5    23    17    1
     6    17    18    1
     7    18    19    1
     8    19    20    1
     9    20     1    1
    10     1     2   am
    11     2     3    2
    12     2     5    1
    13     5     6   ar
    14     6     7   ar
    15     7    14    1
    16    14    15    1
    17    14    16    1
    18     7     8   ar
    19     8     9   ar
    20     9    10   ar
    21    10    11   ar
    22    11    12   ar
    23    12    13   ar
    24    20    21    1
    25    21    22    1
    26    22    17    1
    27    13     5   ar
    28    13     8   ar
    29     1     4    1
