@<TRIPOS>MOLECULE
*****
 37 40 0 0 0
SMALL
GASTEIGER

@<TRIPOS>ATOM
      1 N          64.6123   89.9197   13.9623 N.pl3   1  UNL1       -0.2869
      2 C          65.8025   90.6172   14.5513 C.3     1  UNL1        0.0926
      3 C          66.2595   91.9288   13.9848 C.3     1  UNL1        0.0215
      4 C          65.5263   92.5429   12.8293 C.3     1  UNL1        0.0040
      5 C          64.3360   91.8454   12.2403 C.3     1  UNL1        0.0292
      6 C          63.8791   90.5338   12.8068 C.3     1  UNL1        0.1508
      7 C          63.6531   86.0775   14.2224 C.ar    1  UNL1        0.1362
      8 C          64.1101   87.3891   13.6559 C.ar    1  UNL1        0.0686
      9 C          64.1552   88.6081   14.5288 C.ar    1  UNL1        0.1364
     10 N          63.7433   88.5156   15.9682 N.ar    1  UNL1       -0.2083
     11 C          63.2863   87.2040   16.5346 C.ar    1  UNL1        0.2374
     12 N          63.2412   85.9850   15.6617 N.ar    1  UNL1       -0.2083
     13 C          63.4727   81.2014   10.7309 C.3     1  UNL1        0.0897
     14 N          63.5178   82.4204   11.6037 N.3     1  UNL1       -0.2686
     15 C          64.2558   82.3814   12.9090 C.3     1  UNL1        0.0939
     16 C          64.3009   83.6004   13.7819 C.3     1  UNL1        0.1095
     17 N          63.6080   84.8585   13.3495 N.pl3   1  UNL1       -0.2903
     18 C          62.8700   84.8976   12.0443 C.3     1  UNL1        0.1095
     19 C          62.8249   83.6786   11.1714 C.3     1  UNL1        0.0939
     20 C          62.8744   87.1115   17.9740 C.3     1  UNL1        0.4524
     21 F          62.4625   87.0188   19.4134 F       1  UNL1       -0.1632
     22 F          62.5216   85.6665   17.7801 F       1  UNL1       -0.1632
     23 F          63.2272   88.5564   18.1680 F       1  UNL1       -0.1632
     24 C          62.6888   89.8363   12.2178 C.2     1  UNL1        0.2405
     25 O          62.8633   88.9129   11.0487 O.2     1  UNL1       -0.2733
     26 N          61.3241   90.0624   12.7979 N.am    1  UNL1       -0.3027
     27 H          61.2096   90.6685   13.5652 H       1  UNL1        0.1495
     28 C          60.1339   89.3650   12.2089 C.3     1  UNL1        0.0941
     29 C          59.7879   89.5634   10.7629 C.3     1  UNL1        0.0476
     30 C          60.0364   88.4629    9.7745 C.ar    1  UNL1       -0.0204
     31 C          60.6000   87.1521   10.2373 C.ar    1  UNL1       -0.0035
     32 C          60.8484   86.0516    9.2487 C.ar    1  UNL1        0.0100
     33 C          60.5333   86.2619    7.7974 C.ar    1  UNL1        0.0684
     34 C          59.9697   87.5727    7.3345 C.ar    1  UNL1        0.0100
     35 C          59.7212   88.6732    8.3230 C.ar    1  UNL1       -0.0035
     36 C          60.7818   85.1614    6.8088 C.1     1  UNL1        0.1004
     37 N          61.0302   84.0609    5.8203 N.1     1  UNL1       -0.1908
@<TRIPOS>BOND
     1    13    14    1
     2    14    15    1
     3    15    16    1
     4    16    17    1
     5    17     7    1
     6     7     8   ar
     7     8     9   ar
     8     9     1    1
     9     1     2    1
    10     2     3    1
    11     3     4    1
    12     4     5    1
    13     5     6    1
    14     6    24    1
    15    24    25    2
    16    24    26   am
    17    26    28    1
    18    28    29    1
    19    29    30    1
    20    30    31   ar
    21    31    32   ar
    22    32    33   ar
    23    33    36    1
    24    36    37    3
    25    33    34   ar
    26    34    35   ar
    27     9    10   ar
    28    10    11   ar
    29    11    20    1
    30    20    21    1
    31    20    22    1
    32    20    23    1
    33    11    12   ar
    34    17    18    1
    35    18    19    1
    36    19    14    1
    37    12     7   ar
    38     6     1    1
    39    35    30   ar
    40    26    27    1
@<TRIPOS>MOLECULE
*****
 37 40 0 0 0
SMALL
GASTEIGER

@<TRIPOS>ATOM
      1 N          60.8595   87.5247    9.5624 N.pl3   1  UNL1       -0.2869
      2 C          60.2310   86.5147    8.6487 C.3     1  UNL1        0.0926
      3 C          59.4234   86.9701    7.4695 C.3     1  UNL1        0.0215
      4 C          59.2443   88.4355    7.2041 C.3     1  UNL1        0.0040
      5 C          59.8728   89.4455    8.1179 C.3     1  UNL1        0.0292
      6 C          60.6804   88.9901    9.2970 C.3     1  UNL1        0.1508
      7 C          62.5289   85.1572   12.2751 C.ar    1  UNL1        0.1362
      8 C          61.7214   85.6127   11.0959 C.ar    1  UNL1        0.0686
      9 C          61.6671   87.0692   10.7416 C.ar    1  UNL1        0.1364
     10 N          62.4203   88.0703   11.5665 N.ar    1  UNL1       -0.2083
     11 C          63.2279   87.6149   12.7456 C.ar    1  UNL1        0.2374
     12 N          63.2822   86.1583   13.0999 N.ar    1  UNL1       -0.2083
     13 C          62.7461   79.3310   13.6923 C.3     1  UNL1        0.0897
     14 N          62.6918   80.7876   13.3380 N.3     1  UNL1       -0.2686
     15 C          62.9115   81.2231   11.9195 C.3     1  UNL1        0.0939
     16 C          62.8572   82.6797   11.5652 C.3     1  UNL1        0.1095
     17 N          62.5832   83.7007   12.6294 N.pl3   1  UNL1       -0.2903
     18 C          62.3635   83.2651   14.0478 C.3     1  UNL1        0.1095
     19 C          62.4178   81.8086   14.4021 C.3     1  UNL1        0.0939
     20 C          63.9812   88.6160   13.5705 C.3     1  UNL1        0.4524
     21 F          64.7344   89.6171   14.3953 F       1  UNL1       -0.1632
     22 F          63.2731   89.7325   12.8620 F       1  UNL1       -0.1632
     23 F          64.6893   87.4995   14.2789 F       1  UNL1       -0.1632
     24 C          61.3089   90.0001   10.2108 C.2     1  UNL1        0.2405
     25 O          60.6040   90.4150   11.4682 O.2     1  UNL1       -0.2733
     26 N          62.6422   90.5951    9.8672 N.am    1  UNL1       -0.3027
     27 H          63.1048   90.3228    9.0420 H       1  UNL1        0.1495
     28 C          63.2707   91.6051   10.7809 C.3     1  UNL1        0.0941
     29 C          64.6874   92.0427   10.5540 C.3     1  UNL1        0.0476
     30 C          65.6313   92.1592   11.7139 C.ar    1  UNL1       -0.0204
     31 C          67.1120   92.0814   11.4867 C.ar    1  UNL1       -0.0035
     32 C          68.0559   92.1979   12.6467 C.ar    1  UNL1        0.0100
     33 C          67.5192   92.3923   14.0338 C.ar    1  UNL1        0.0684
     34 C          66.0385   92.4701   14.2610 C.ar    1  UNL1        0.0100
     35 C          65.0946   92.3536   13.1011 C.ar    1  UNL1       -0.0035
     36 C          68.4631   92.5088   15.1938 C.1     1  UNL1        0.1004
     37 N          69.4069   92.6254   16.3537 N.1     1  UNL1       -0.1908
@<TRIPOS>BOND
     1    13    14    1
     2    14    15    1
     3    15    16    1
     4    16    17    1
     5    17     7    1
     6     7     8   ar
     7     8     9   ar
     8     9     1    1
     9     1     2    1
    10     2     3    1
    11     3     4    1
    12     4     5    1
    13     5     6    1
    14     6    24    1
    15    24    25    2
    16    24    26   am
    17    26    28    1
    18    28    29    1
    19    29    30    1
    20    30    31   ar
    21    31    32   ar
    22    32    33   ar
    23    33    36    1
    24    36    37    3
    25    33    34   ar
    26    34    35   ar
    27     9    10   ar
    28    10    11   ar
    29    11    20    1
    30    20    21    1
    31    20    22    1
    32    20    23    1
    33    11    12   ar
    34    17    18    1
    35    18    19    1
    36    19    14    1
    37    12     7   ar
    38     6     1    1
    39    35    30   ar
    40    26    27    1
@<TRIPOS>MOLECULE
*****
 37 40 0 0 0
SMALL
GASTEIGER

@<TRIPOS>ATOM
      1 N          63.5301   90.5900   12.0693 N.pl3   1  UNL1       -0.2869
      2 C          64.0725   91.6136   11.1165 C.3     1  UNL1        0.0926
      3 C          65.2348   92.4720   11.5196 C.3     1  UNL1        0.0215
      4 C          65.8545   92.3067   12.8756 C.3     1  UNL1        0.0040
      5 C          65.3119   91.2830   13.8284 C.3     1  UNL1        0.0292
      6 C          64.1498   90.4246   13.4252 C.3     1  UNL1        0.1508
      7 C          61.3578   87.8795   10.1497 C.ar    1  UNL1        0.1362
      8 C          62.5200   88.7378   10.5528 C.ar    1  UNL1        0.0686
      9 C          62.3678   89.7316   11.6661 C.ar    1  UNL1        0.1364
     10 N          61.0535   89.8669   12.3762 N.ar    1  UNL1       -0.2083
     11 C          59.8914   89.0086   11.9730 C.ar    1  UNL1        0.2374
     12 N          60.0436   88.0148   10.8598 N.ar    1  UNL1       -0.2083
     13 C          61.9664   83.9046    5.6966 C.3     1  UNL1        0.0897
     14 N          61.8143   84.8983    6.8099 N.3     1  UNL1       -0.2686
     15 C          62.9445   85.1294    7.7686 C.3     1  UNL1        0.0939
     16 C          62.7923   86.1231    8.8818 C.3     1  UNL1        0.1095
     17 N          61.5100   86.8858    9.0364 N.pl3   1  UNL1       -0.2903
     18 C          60.3798   86.6547    8.0777 C.3     1  UNL1        0.1095
     19 C          60.5319   85.6609    6.9644 C.3     1  UNL1        0.0939
     20 C          58.5770   89.1439   12.6832 C.3     1  UNL1        0.4524
     21 F          57.2627   89.2792   13.3932 F       1  UNL1       -0.1632
     22 F          58.2709   90.3745   11.8820 F       1  UNL1       -0.1632
     23 F          58.8831   87.9133   13.4843 F       1  UNL1       -0.1632
     24 C          63.6072   89.4009   14.3780 C.2     1  UNL1        0.2405
     25 O          62.5100   89.7709   15.3315 O.2     1  UNL1       -0.2733
     26 N          64.1620   88.0073   14.3773 N.am    1  UNL1       -0.3027
     27 H          64.8822   87.7645   13.7515 H       1  UNL1        0.1495
     28 C          63.6195   86.9836   15.3301 C.3     1  UNL1        0.0941
     29 C          64.2655   85.6334   15.4279 C.3     1  UNL1        0.0476
     30 C          63.9838   84.5901   14.3876 C.ar    1  UNL1       -0.0204
     31 C          64.1671   83.1374   14.7134 C.ar    1  UNL1       -0.0035
     32 C          63.8854   82.0941   13.6731 C.ar    1  UNL1        0.0100
     33 C          63.4204   82.5035   12.3070 C.ar    1  UNL1        0.0684
     34 C          63.2371   83.9562   11.9812 C.ar    1  UNL1        0.0100
     35 C          63.5188   84.9994   13.0215 C.ar    1  UNL1       -0.0035
     36 C          63.1387   81.4602   11.2667 C.1     1  UNL1        0.1004
     37 N          62.8571   80.4169   10.2264 N.1     1  UNL1       -0.1908
@<TRIPOS>BOND
     1    13    14    1
     2    14    15    1
     3    15    16    1
     4    16    17    1
     5    17     7    1
     6     7     8   ar
     7     8     9   ar
     8     9     1    1
     9     1     2    1
    10     2     3    1
    11     3     4    1
    12     4     5    1
    13     5     6    1
    14     6    24    1
    15    24    25    2
    16    24    26   am
    17    26    28    1
    18    28    29    1
    19    29    30    1
    20    30    31   ar
    21    31    32   ar
    22    32    33   ar
    23    33    36    1
    24    36    37    3
    25    33    34   ar
    26    34    35   ar
    27     9    10   ar
    28    10    11   ar
    29    11    20    1
    30    20    21    1
    31    20    22    1
    32    20    23    1
    33    11    12   ar
    34    17    18    1
    35    18    19    1
    36    19    14    1
    37    12     7   ar
    38     6     1    1
    39    35    30   ar
    40    26    27    1
@<TRIPOS>MOLECULE
*****
 37 40 0 0 0
SMALL
GASTEIGER

@<TRIPOS>ATOM
      1 N          62.3482   88.0026   11.3417 N.pl3   1  UNL1       -0.2869
      2 C          61.7023   88.4838   10.0763 C.3     1  UNL1        0.0926
      3 C          61.0685   87.5010    9.1369 C.3     1  UNL1        0.0215
      4 C          61.0808   86.0369    9.4629 C.3     1  UNL1        0.0040
      5 C          61.7268   85.5556   10.7283 C.3     1  UNL1        0.0292
      6 C          62.3604   86.5385   11.6677 C.3     1  UNL1        0.1508
      7 C          64.3110   91.1821   12.6790 C.ar    1  UNL1        0.1362
      8 C          63.6773   90.1992   11.7397 C.ar    1  UNL1        0.0686
      9 C          62.9819   88.9854   12.2811 C.ar    1  UNL1        0.1364
     10 N          62.9203   88.7545   13.7619 N.ar    1  UNL1       -0.2083
     11 C          63.5540   89.7373   14.7013 C.ar    1  UNL1        0.2374
     12 N          64.2493   90.9511   14.1598 N.ar    1  UNL1       -0.2083
     13 C          67.0924   96.0373   10.5132 C.3     1  UNL1        0.0897
     14 N          66.3970   94.8235   11.0546 N.3     1  UNL1       -0.2686
     15 C          66.4519   94.5200   12.5226 C.3     1  UNL1        0.0939
     16 C          65.7565   93.3062   13.0640 C.3     1  UNL1        0.1095
     17 N          65.0063   92.3959   12.1376 N.pl3   1  UNL1       -0.2903
     18 C          64.9515   92.6993   10.6696 C.3     1  UNL1        0.1095
     19 C          65.6469   93.9131   10.1282 C.3     1  UNL1        0.0939
     20 C          63.4924   89.5063   16.1821 C.3     1  UNL1        0.4524
     21 F          63.4307   89.2754   17.6629 F       1  UNL1       -0.1632
     22 F          63.5102   88.0243   15.9517 F       1  UNL1       -0.1632
     23 F          63.4745   90.9884   16.4126 F       1  UNL1       -0.1632
     24 C          63.0064   86.0572   12.9331 C.2     1  UNL1        0.2405
     25 O          64.4789   86.2504   13.1440 O.2     1  UNL1       -0.2733
     26 N          62.1798   85.3828   13.9876 N.am    1  UNL1       -0.3027
     27 H          61.2134   85.2560   13.8491 H       1  UNL1        0.1495
     28 C          62.8257   84.9016   15.2529 C.3     1  UNL1        0.0941
     29 C          63.4563   83.5415   15.3029 C.3     1  UNL1        0.0476
     30 C          63.3283   82.6120   14.1326 C.ar    1  UNL1       -0.0204
     31 C          62.3110   81.5100   14.1577 C.ar    1  UNL1       -0.0035
     32 C          62.1831   80.5805   12.9873 C.ar    1  UNL1        0.0100
     33 C          63.0724   80.7531   11.7918 C.ar    1  UNL1        0.0684
     34 C          64.0897   81.8551   11.7666 C.ar    1  UNL1        0.0100
     35 C          64.2177   82.7846   12.9370 C.ar    1  UNL1       -0.0035
     36 C          62.9445   79.8236   10.6214 C.1     1  UNL1        0.1004
     37 N          62.8165   78.8942    9.4511 N.1     1  UNL1       -0.1908
@<TRIPOS>BOND
     1    13    14    1
     2    14    15    1
     3    15    16    1
     4    16    17    1
     5    17     7    1
     6     7     8   ar
     7     8     9   ar
     8     9     1    1
     9     1     2    1
    10     2     3    1
    11     3     4    1
    12     4     5    1
    13     5     6    1
    14     6    24    1
    15    24    25    2
    16    24    26   am
    17    26    28    1
    18    28    29    1
    19    29    30    1
    20    30    31   ar
    21    31    32   ar
    22    32    33   ar
    23    33    36    1
    24    36    37    3
    25    33    34   ar
    26    34    35   ar
    27     9    10   ar
    28    10    11   ar
    29    11    20    1
    30    20    21    1
    31    20    22    1
    32    20    23    1
    33    11    12   ar
    34    17    18    1
    35    18    19    1
    36    19    14    1
    37    12     7   ar
    38     6     1    1
    39    35    30   ar
    40    26    27    1
@<TRIPOS>MOLECULE
*****
 37 40 0 0 0
SMALL
GASTEIGER

@<TRIPOS>ATOM
      1 N          62.3679   86.2239    9.9899 N.pl3   1  UNL1       -0.2869
      2 C          62.5095   86.1695    8.4976 C.3     1  UNL1        0.0926
      3 C          62.9037   84.8864    7.8279 C.3     1  UNL1        0.0215
      4 C          63.1563   83.6578    8.6505 C.3     1  UNL1        0.0040
      5 C          63.0147   83.7123   10.1429 C.3     1  UNL1        0.0292
      6 C          62.6205   84.9953   10.8125 C.3     1  UNL1        0.1508
      7 C          62.5840   89.8925   11.4880 C.ar    1  UNL1        0.1362
      8 C          62.9782   88.6095   10.8184 C.ar    1  UNL1        0.0686
      9 C          61.9737   87.5069   10.6596 C.ar    1  UNL1        0.1364
     10 N          60.5750   87.6873   11.1706 N.ar    1  UNL1       -0.2083
     11 C          60.1809   88.9703   11.8403 C.ar    1  UNL1        0.2374
     12 N          61.1854   90.0729   11.9990 N.ar    1  UNL1       -0.2083
     13 C          66.6021   94.3030   12.1229 C.3     1  UNL1        0.0897
     14 N          65.5976   93.2004   11.9642 N.3     1  UNL1       -0.2686
     15 C          64.9913   92.9259   10.6199 C.3     1  UNL1        0.0939
     16 C          63.9868   91.8233   10.4612 C.3     1  UNL1        0.1095
     17 N          63.5886   90.9951   11.6468 N.pl3   1  UNL1       -0.2903
     18 C          64.1948   91.2696   12.9910 C.3     1  UNL1        0.1095
     19 C          65.1994   92.3722   13.1497 C.3     1  UNL1        0.0939
     20 C          58.7821   89.1507   12.3513 C.3     1  UNL1        0.4524
     21 F          57.3835   89.3312   12.8623 F       1  UNL1       -0.1632
     22 F          58.6533   90.4138   11.5526 F       1  UNL1       -0.1632
     23 F          58.9109   87.8876   13.1500 F       1  UNL1       -0.1632
     24 C          62.4789   85.0497   12.3049 C.2     1  UNL1        0.2405
     25 O          61.7839   86.2117   12.9504 O.2     1  UNL1       -0.2733
     26 N          63.0324   83.9422   13.1517 N.am    1  UNL1       -0.3027
     27 H          63.4886   83.1795   12.7280 H       1  UNL1        0.1495
     28 C          62.8908   83.9966   14.6439 C.3     1  UNL1        0.0941
     29 C          63.9259   84.7007   15.4703 C.3     1  UNL1        0.0476
     30 C          63.8209   86.1786   15.7040 C.ar    1  UNL1       -0.0204
     31 C          63.1235   86.6970   16.9267 C.ar    1  UNL1       -0.0035
     32 C          63.0185   88.1750   17.1603 C.ar    1  UNL1        0.0100
     33 C          63.6109   89.1346   16.1712 C.ar    1  UNL1        0.0684
     34 C          64.3082   88.6162   14.9485 C.ar    1  UNL1        0.0100
     35 C          64.4132   87.1383   14.7149 C.ar    1  UNL1       -0.0035
     36 C          63.5059   90.6126   16.4048 C.1     1  UNL1        0.1004
     37 N          63.4009   92.0905   16.6384 N.1     1  UNL1       -0.1908
@<TRIPOS>BOND
     1    13    14    1
     2    14    15    1
     3    15    16    1
     4    16    17    1
     5    17     7    1
     6     7     8   ar
     7     8     9   ar
     8     9     1    1
     9     1     2    1
    10     2     3    1
    11     3     4    1
    12     4     5    1
    13     5     6    1
    14     6    24    1
    15    24    25    2
    16    24    26   am
    17    26    28    1
    18    28    29    1
    19    29    30    1
    20    30    31   ar
    21    31    32   ar
    22    32    33   ar
    23    33    36    1
    24    36    37    3
    25    33    34   ar
    26    34    35   ar
    27     9    10   ar
    28    10    11   ar
    29    11    20    1
    30    20    21    1
    31    20    22    1
    32    20    23    1
    33    11    12   ar
    34    17    18    1
    35    18    19    1
    36    19    14    1
    37    12     7   ar
    38     6     1    1
    39    35    30   ar
    40    26    27    1
@<TRIPOS>MOLECULE
*****
 37 40 0 0 0
SMALL
GASTEIGER

@<TRIPOS>ATOM
      1 N          61.7794   89.1599   10.9099 N.pl3   1  UNL1       -0.2869
      2 C          60.7442   89.7712   10.0128 C.3     1  UNL1        0.0926
      3 C          59.8038   88.8909    9.2441 C.3     1  UNL1        0.0215
      4 C          59.8986   87.3994    9.3725 C.3     1  UNL1        0.0040
      5 C          60.9338   86.7882   10.2697 C.3     1  UNL1        0.0292
      6 C          61.8742   87.6684   11.0383 C.3     1  UNL1        0.1508
      7 C          64.5501   91.8836   11.7192 C.ar    1  UNL1        0.1362
      8 C          63.6097   91.0033   10.9505 C.ar    1  UNL1        0.0686
      9 C          62.7198   90.0402   11.6787 C.ar    1  UNL1        0.1364
     10 N          62.7701   89.9572   13.1755 N.ar    1  UNL1       -0.2083
     11 C          63.7105   90.8374   13.9442 C.ar    1  UNL1        0.2374
     12 N          64.6005   91.8006   13.2160 N.ar    1  UNL1       -0.2083
     13 C          68.1100   95.7362    8.8065 C.3     1  UNL1        0.0897
     14 N          67.2201   94.7731    9.5347 N.3     1  UNL1       -0.2686
     15 C          66.0019   95.2735   10.2527 C.3     1  UNL1        0.0939
     16 C          65.1119   94.3103   10.9809 C.3     1  UNL1        0.1095
     17 N          65.4401   92.8467   10.9910 N.pl3   1  UNL1       -0.2903
     18 C          66.6582   92.3463   10.2729 C.3     1  UNL1        0.1095
     19 C          67.5482   93.3095    9.5448 C.3     1  UNL1        0.0939
     20 C          63.7609   90.7545   15.4411 C.3     1  UNL1        0.4524
     21 F          63.8114   90.6716   16.9379 F       1  UNL1       -0.1632
     22 F          64.9008   91.7294   15.4566 F       1  UNL1       -0.1632
     23 F          62.6211   89.7797   15.4255 F       1  UNL1       -0.1632
     24 C          62.9094   87.0572   11.9355 C.2     1  UNL1        0.2405
     25 O          63.4161   85.6723   11.6613 O.2     1  UNL1       -0.2733
     26 N          63.4378   87.8310   13.1068 N.am    1  UNL1       -0.3027
     27 H          63.1053   88.7399   13.2868 H       1  UNL1        0.1495
     28 C          64.4730   87.2198   14.0040 C.3     1  UNL1        0.0941
     29 C          64.0612   86.2537   15.0750 C.3     1  UNL1        0.0476
     30 C          63.7020   84.8427   14.7145 C.ar    1  UNL1       -0.0204
     31 C          62.3749   84.2780   15.1266 C.ar    1  UNL1       -0.0035
     32 C          62.0157   82.8669   14.7661 C.ar    1  UNL1        0.0100
     33 C          62.9836   82.0206   13.9935 C.ar    1  UNL1        0.0684
     34 C          64.3107   82.5854   13.5815 C.ar    1  UNL1        0.0100
     35 C          64.6699   83.9964   13.9419 C.ar    1  UNL1       -0.0035
     36 C          62.6245   80.6095   13.6330 C.1     1  UNL1        0.1004
     37 N          62.2653   79.1985   13.2725 N.1     1  UNL1       -0.1908
@<TRIPOS>BOND
     1    13    14    1
     2    14    15    1
     3    15    16    1
     4    16    17    1
     5    17     7    1
     6     7     8   ar
     7     8     9   ar
     8     9     1    1
     9     1     2    1
    10     2     3    1
    11     3     4    1
    12     4     5    1
    13     5     6    1
    14     6    24    1
    15    24    25    2
    16    24    26   am
    17    26    28    1
    18    28    29    1
    19    29    30    1
    20    30    31   ar
    21    31    32   ar
    22    32    33   ar
    23    33    36    1
    24    36    37    3
    25    33    34   ar
    26    34    35   ar
    27     9    10   ar
    28    10    11   ar
    29    11    20    1
    30    20    21    1
    31    20    22    1
    32    20    23    1
    33    11    12   ar
    34    17    18    1
    35    18    19    1
    36    19    14    1
    37    12     7   ar
    38     6     1    1
    39    35    30   ar
    40    26    27    1
@<TRIPOS>MOLECULE
*****
 37 40 0 0 0
SMALL
GASTEIGER

@<TRIPOS>ATOM
      1 N          61.2934   87.2230   10.0588 N.pl3   1  UNL1       -0.2869
      2 C          61.0227   86.7180    8.6726 C.3     1  UNL1        0.0926
      3 C          60.3182   87.5940    7.6794 C.3     1  UNL1        0.0215
      4 C          59.8845   88.9751    8.0725 C.3     1  UNL1        0.0040
      5 C          60.1553   89.4801    9.4587 C.3     1  UNL1        0.0292
      6 C          60.8597   88.6041   10.4519 C.3     1  UNL1        0.1508
      7 C          62.7215   83.9835   11.8522 C.ar    1  UNL1        0.1362
      8 C          62.0171   84.8596   10.8591 C.ar    1  UNL1        0.0686
      9 C          61.9978   86.3470   11.0520 C.ar    1  UNL1        0.1364
     10 N          62.6830   86.9584   12.2380 N.ar    1  UNL1       -0.2083
     11 C          63.3874   86.0824   13.2311 C.ar    1  UNL1        0.2374
     12 N          63.4067   84.5949   13.0382 N.ar    1  UNL1       -0.2083
     13 C          62.7985   78.0339   11.0806 C.3     1  UNL1        0.0897
     14 N          62.7792   79.5213   11.2735 N.3     1  UNL1       -0.2686
     15 C          63.1450   80.4297   10.1373 C.3     1  UNL1        0.0939
     16 C          63.1258   81.9171   10.3302 C.3     1  UNL1        0.1095
     17 N          62.7407   82.4961   11.6593 N.pl3   1  UNL1       -0.2903
     18 C          62.3750   81.5877   12.7954 C.3     1  UNL1        0.1095
     19 C          62.3942   80.1003   12.6025 C.3     1  UNL1        0.0939
     20 C          64.0726   86.6937   14.4172 C.3     1  UNL1        0.4524
     21 F          64.7578   87.3050   15.6033 F       1  UNL1       -0.1632
     22 F          63.6080   85.5532   15.2735 F       1  UNL1       -0.1632
     23 F          64.5373   87.8343   13.5610 F       1  UNL1       -0.1632
     24 C          61.1304   89.1092   11.8381 C.2     1  UNL1        0.2405
     25 O          60.0626   89.0267   12.8883 O.2     1  UNL1       -0.2733
     26 N          62.4691   89.6966   12.1742 N.am    1  UNL1       -0.3027
     27 H          63.1700   89.7507   11.4849 H       1  UNL1        0.1495
     28 C          62.7399   90.2016   13.5604 C.3     1  UNL1        0.0941
     29 C          64.0845   90.7723   13.9014 C.3     1  UNL1        0.0476
     30 C          64.7853   91.6737   12.9286 C.ar    1  UNL1       -0.0204
     31 C          64.3669   91.6926   11.4882 C.ar    1  UNL1       -0.0035
     32 C          65.0677   92.5940   10.5154 C.ar    1  UNL1        0.0100
     33 C          66.1869   93.4765   10.9830 C.ar    1  UNL1        0.0684
     34 C          66.6053   93.4576   12.4233 C.ar    1  UNL1        0.0100
     35 C          65.9045   92.5562   13.3961 C.ar    1  UNL1       -0.0035
     36 C          66.8878   94.3779   10.0102 C.1     1  UNL1        0.1004
     37 N          67.5886   95.2793    9.0374 N.1     1  UNL1       -0.1908
@<TRIPOS>BOND
     1    13    14    1
     2    14    15    1
     3    15    16    1
     4    16    17    1
     5    17     7    1
     6     7     8   ar
     7     8     9   ar
     8     9     1    1
     9     1     2    1
    10     2     3    1
    11     3     4    1
    12     4     5    1
    13     5     6    1
    14     6    24    1
    15    24    25    2
    16    24    26   am
    17    26    28    1
    18    28    29    1
    19    29    30    1
    20    30    31   ar
    21    31    32   ar
    22    32    33   ar
    23    33    36    1
    24    36    37    3
    25    33    34   ar
    26    34    35   ar
    27     9    10   ar
    28    10    11   ar
    29    11    20    1
    30    20    21    1
    31    20    22    1
    32    20    23    1
    33    11    12   ar
    34    17    18    1
    35    18    19    1
    36    19    14    1
    37    12     7   ar
    38     6     1    1
    39    35    30   ar
    40    26    27    1
@<TRIPOS>MOLECULE
*****
 37 40 0 0 0
SMALL
GASTEIGER

@<TRIPOS>ATOM
      1 N          63.5442   84.1453   13.8081 N.pl3   1  UNL1       -0.2869
      2 C          64.1521   82.9817   14.5337 C.3     1  UNL1        0.0926
      3 C          64.1813   81.6278   13.8886 C.3     1  UNL1        0.0215
      4 C          63.6028   81.4375   12.5178 C.3     1  UNL1        0.0040
      5 C          62.9949   82.6012   11.7922 C.3     1  UNL1        0.0292
      6 C          62.9657   83.9550   12.4373 C.3     1  UNL1        0.1508
      7 C          63.7712   88.0789   14.2824 C.ar    1  UNL1        0.1362
      8 C          63.8005   86.7251   13.6373 C.ar    1  UNL1        0.0686
      9 C          63.5150   85.4992   14.4532 C.ar    1  UNL1        0.1364
     10 N          63.2002   85.6272   15.9142 N.ar    1  UNL1       -0.2083
     11 C          63.1710   86.9810   16.5593 C.ar    1  UNL1        0.2374
     12 N          63.4565   88.2069   15.7434 N.ar    1  UNL1       -0.2083
     13 C          64.9132   92.9824   11.0187 C.3     1  UNL1        0.0897
     14 N          64.6277   91.7566   11.8347 N.3     1  UNL1       -0.2686
     15 C          65.3475   91.5345   13.1317 C.3     1  UNL1        0.0939
     16 C          65.0620   90.3087   13.9477 C.3     1  UNL1        0.1095
     17 N          64.0567   89.3048   13.4665 N.pl3   1  UNL1       -0.2903
     18 C          63.3369   89.5268   12.1694 C.3     1  UNL1        0.1095
     19 C          63.6223   90.7527   11.3535 C.3     1  UNL1        0.0939
     20 C          62.8562   87.1091   18.0203 C.3     1  UNL1        0.4524
     21 F          62.5415   87.2371   19.4813 F       1  UNL1       -0.1632
     22 F          63.2607   88.5529   17.9809 F       1  UNL1       -0.1632
     23 F          62.4517   85.6652   18.0598 F       1  UNL1       -0.1632
     24 C          62.3578   85.1187   11.7117 C.2     1  UNL1        0.2405
     25 O          61.2640   85.9166   12.3572 O.2     1  UNL1       -0.2733
     26 N          62.8439   85.4844   10.3405 N.am    1  UNL1       -0.3027
     27 H          63.5619   84.9606    9.9169 H       1  UNL1        0.1495
     28 C          62.2361   86.6480    9.6149 C.3     1  UNL1        0.0941
     29 C          60.7529   86.7053    9.3988 C.3     1  UNL1        0.0476
     30 C          60.1686   87.7336    8.4762 C.ar    1  UNL1       -0.0204
     31 C          59.2203   87.3157    7.3917 C.ar    1  UNL1       -0.0035
     32 C          58.6360   88.3441    6.4691 C.ar    1  UNL1        0.0100
     33 C          58.9999   89.7902    6.6311 C.ar    1  UNL1        0.0684
     34 C          59.9482   90.2081    7.7157 C.ar    1  UNL1        0.0100
     35 C          60.5325   89.1798    8.6382 C.ar    1  UNL1       -0.0035
     36 C          58.4156   90.8186    5.7085 C.1     1  UNL1        0.1004
     37 N          57.8313   91.8469    4.7860 N.1     1  UNL1       -0.1908
@<TRIPOS>BOND
     1    13    14    1
     2    14    15    1
     3    15    16    1
     4    16    17    1
     5    17     7    1
     6     7     8   ar
     7     8     9   ar
     8     9     1    1
     9     1     2    1
    10     2     3    1
    11     3     4    1
    12     4     5    1
    13     5     6    1
    14     6    24    1
    15    24    25    2
    16    24    26   am
    17    26    28    1
    18    28    29    1
    19    29    30    1
    20    30    31   ar
    21    31    32   ar
    22    32    33   ar
    23    33    36    1
    24    36    37    3
    25    33    34   ar
    26    34    35   ar
    27     9    10   ar
    28    10    11   ar
    29    11    20    1
    30    20    21    1
    31    20    22    1
    32    20    23    1
    33    11    12   ar
    34    17    18    1
    35    18    19    1
    36    19    14    1
    37    12     7   ar
    38     6     1    1
    39    35    30   ar
    40    26    27    1
@<TRIPOS>MOLECULE
*****
 37 40 0 0 0
SMALL
GASTEIGER

@<TRIPOS>ATOM
      1 N          61.6670   86.7299    9.0477 N.pl3   1  UNL1       -0.2869
      2 C          62.7527   85.7111    9.2303 C.3     1  UNL1        0.0926
      3 C          62.9701   84.6522    8.1903 C.3     1  UNL1        0.0215
      4 C          62.1019   84.6121    6.9678 C.3     1  UNL1        0.0040
      5 C          61.0161   85.6309    6.7853 C.3     1  UNL1        0.0292
      6 C          60.7987   86.6898    7.8253 C.3     1  UNL1        0.1508
      7 C          62.3517   89.7737   11.5005 C.ar    1  UNL1        0.1362
      8 C          62.5691   88.7148   10.4606 C.ar    1  UNL1        0.0686
      9 C          61.4496   87.7888   10.0877 C.ar    1  UNL1        0.1364
     10 N          60.1126   87.9217   10.7547 N.ar    1  UNL1       -0.2083
     11 C          59.8952   88.9806   11.7946 C.ar    1  UNL1        0.2374
     12 N          61.0148   89.9066   12.1675 N.ar    1  UNL1       -0.2083
     13 C          66.8299   93.4779   12.9922 C.3     1  UNL1        0.0897
     14 N          65.7104   92.5518   12.6193 N.3     1  UNL1       -0.2686
     15 C          65.1539   92.5706   11.2265 C.3     1  UNL1        0.0939
     16 C          64.0344   91.6446   10.8536 C.3     1  UNL1        0.1095
     17 N          63.4713   90.6998   11.8735 N.pl3   1  UNL1       -0.2903
     18 C          64.0277   90.6810   13.2663 C.3     1  UNL1        0.1095
     19 C          65.1472   91.6071   13.6392 C.3     1  UNL1        0.0939
     20 C          58.5582   89.1135   12.4616 C.3     1  UNL1        0.4524
     21 F          57.2213   89.2464   13.1286 F       1  UNL1       -0.1632
     22 F          58.3704   90.4551   11.8177 F       1  UNL1       -0.1632
     23 F          58.7461   87.7718   13.1055 F       1  UNL1       -0.1632
     24 C          59.7130   87.7086    7.6427 C.2     1  UNL1        0.2405
     25 O          58.2845   87.3389    7.9126 O.2     1  UNL1       -0.2733
     26 N          60.0558   89.0971    7.1904 N.am    1  UNL1       -0.3027
     27 H          60.9933   89.3397    7.0133 H       1  UNL1        0.1495
     28 C          58.9701   90.1159    7.0079 C.3     1  UNL1        0.0941
     29 C          58.5577   90.5334    5.6274 C.3     1  UNL1        0.0476
     30 C          59.5429   91.2138    4.7239 C.ar    1  UNL1       -0.0204
     31 C          60.9786   90.7794    4.7172 C.ar    1  UNL1       -0.0035
     32 C          61.9639   91.4599    3.8136 C.ar    1  UNL1        0.0100
     33 C          61.5134   92.5747    2.9169 C.ar    1  UNL1        0.0684
     34 C          60.0777   93.0091    2.9236 C.ar    1  UNL1        0.0100
     35 C          59.0925   92.3287    3.8271 C.ar    1  UNL1       -0.0035
     36 C          62.4986   93.2552    2.0133 C.1     1  UNL1        0.1004
     37 N          63.4838   93.9357    1.1099 N.1     1  UNL1       -0.1908
@<TRIPOS>BOND
     1    13    14    1
     2    14    15    1
     3    15    16    1
     4    16    17    1
     5    17     7    1
     6     7     8   ar
     7     8     9   ar
     8     9     1    1
     9     1     2    1
    10     2     3    1
    11     3     4    1
    12     4     5    1
    13     5     6    1
    14     6    24    1
    15    24    25    2
    16    24    26   am
    17    26    28    1
    18    28    29    1
    19    29    30    1
    20    30    31   ar
    21    31    32   ar
    22    32    33   ar
    23    33    36    1
    24    36    37    3
    25    33    34   ar
    26    34    35   ar
    27     9    10   ar
    28    10    11   ar
    29    11    20    1
    30    20    21    1
    31    20    22    1
    32    20    23    1
    33    11    12   ar
    34    17    18    1
    35    18    19    1
    36    19    14    1
    37    12     7   ar
    38     6     1    1
    39    35    30   ar
    40    26    27    1
