@<TRIPOS>MOLECULE
*****
 51 55 0 0 0
SMALL
GASTEIGER

@<TRIPOS>ATOM
      1 N          60.6309   89.0278    8.7029 N.am    1  UNL1       -0.2954
      2 C          60.5533   88.6220   10.1449 C.2     1  UNL1        0.2390
      3 O          59.4063   87.7846   10.6277 O.2     1  UNL1       -0.2736
      4 H          61.3837   89.5774    8.3860 H       1  UNL1        0.1499
      5 C          61.6228   89.0536   11.1040 C.3     1  UNL1        0.1568
      6 C          61.8537   90.4515   11.5964 C.3     1  UNL1        0.0442
      7 C          63.0228   90.4250   12.5359 C.3     1  UNL1        0.0738
      8 C          63.5144   89.0106   12.6241 C.3     1  UNL1        0.1120
      9 N          62.6492   88.1630   11.7392 N.3     1  UNL1       -0.1467
     10 S          62.7863   86.6844   11.5268 S.O2    1  UNL1        0.0637
     11 O          63.1274   86.5078   12.9768 O.2     1  UNL1       -0.1528
     12 O          62.4452   86.8611   10.0769 O.2     1  UNL1       -0.1528
     13 C          62.9235   85.2059   11.3145 C.ar    1  UNL1        0.1229
     14 C          63.4130   84.6794    9.9981 C.ar    1  UNL1        0.0199
     15 C          63.5501   83.2008    9.7859 C.ar    1  UNL1        0.0021
     16 C          63.1977   82.2487   10.8901 C.ar    1  UNL1        0.0104
     17 C          62.7081   82.7753   12.2066 C.ar    1  UNL1        0.0698
     18 C          62.5710   84.2538   12.4188 C.ar    1  UNL1        0.0302
     19 C          62.3556   81.8232   13.3109 C.1     1  UNL1        0.1005
     20 N          62.0032   80.8711   14.4151 N.1     1  UNL1       -0.1908
     21 N          63.5990   91.6054   13.2599 N.3     1  UNL1       -0.2984
     22 H          63.2151   91.5874   14.2048 H       1  UNL1        0.1232
     23 C          65.0858   91.7472   13.3993 C.3     1  UNL1        0.0540
     24 C          66.1570   92.4768   12.6443 C.3     1  UNL1        0.0158
     25 C          67.1883   91.9477   13.5963 C.3     1  UNL1        0.0027
     26 C          66.1171   91.2181   14.3513 C.3     1  UNL1        0.0158
     27 C          59.5614   88.5962    7.7437 C.3     1  UNL1        0.1758
     28 C          59.3872   87.1420    7.4194 C.2     1  UNL1        0.3353
     29 O          58.1766   86.4041    7.9094 O.2     1  UNL1       -0.2483
     30 O          60.4235   86.4258    6.6052 O.3     1  UNL1       -0.4474
     31 C          62.0928   84.4549    6.3242 C.3     1  UNL1        0.0513
     32 C          61.1258   85.2275    7.1716 C.3     1  UNL1        0.2086
     33 C          58.6662   89.6187    7.1089 C.3     1  UNL1        0.0574
     34 C          59.1774   90.4672    5.9825 C.ar    1  UNL1       -0.0199
     35 C          58.2323   91.3431    5.2146 C.ar    1  UNL1       -0.0029
     36 C          58.7435   92.1916    4.0883 C.ar    1  UNL1        0.0144
     37 C          60.1998   92.1642    3.7299 C.ar    1  UNL1        0.0505
     38 C          61.1449   91.2884    4.4978 C.ar    1  UNL1        0.0144
     39 C          60.6337   90.4399    5.6241 C.ar    1  UNL1       -0.0029
     40 N          60.7110   93.0128    2.6035 N.am    1  UNL1       -0.2803
     41 C          61.9627   92.6195    1.8765 C.2     1  UNL1        0.2512
     42 O          62.7032   91.3776    2.2758 O.2     1  UNL1       -0.2698
     43 H          60.2250   93.8278    2.3414 H       1  UNL1        0.1552
     44 C          62.4739   93.4680    0.7501 C.ar    1  UNL1        0.0778
     45 C          61.7949   93.4283   -0.5868 C.ar    1  UNL1        0.0820
     46 CL         60.6047   92.5400   -0.7974 Cl      1  UNL1       -0.0804
     47 C          62.3062   94.2768   -1.7131 C.ar    1  UNL1        0.1104
     48 N          63.4964   95.1651   -1.5025 N.ar    1  UNL1       -0.2405
     49 C          64.1754   95.2049   -0.1656 C.ar    1  UNL1        0.1104
     50 C          63.6641   94.3563    0.9607 C.ar    1  UNL1        0.0820
     51 CL         64.3431   94.3961    2.2977 Cl      1  UNL1       -0.0804
@<TRIPOS>BOND
     1    31    32    1
     2    32    30    1
     3    30    28    1
     4    28    29    2
     5    28    27    1
     6    27    33    1
     7    33    34    1
     8    34    35   ar
     9    35    36   ar
    10    36    37   ar
    11    37    40    1
    12    40    41   am
    13    41    42    2
    14    41    44    1
    15    44    45   ar
    16    45    46    1
    17    45    47   ar
    18    47    48   ar
    19    48    49   ar
    20    49    50   ar
    21    50    51    1
    22    37    38   ar
    23    38    39   ar
    24    27     1    1
    25     1     2   am
    26     2     3    2
    27     5     2    1
    28     5     6    1
    29     6     7    1
    30     7    21    1
    31    21    23    1
    32    23    24    1
    33    24    25    1
    34    25    26    1
    35     7     8    1
    36     8     9    1
    37     9    10    1
    38    10    11    2
    39    10    12    2
    40    10    13    1
    41    13    14   ar
    42    14    15   ar
    43    15    16   ar
    44    16    17   ar
    45    17    19    1
    46    19    20    3
    47    17    18   ar
    48    39    34   ar
    49     9     5    1
    50    18    13   ar
    51    50    44   ar
    52    26    23    1
    53    40    43    1
    54     1     4    1
    55    21    22    1
@<TRIPOS>MOLECULE
*****
 51 55 0 0 0
SMALL
GASTEIGER

@<TRIPOS>ATOM
      1 N          61.4357   87.7758    9.5747 N.am    1  UNL1       -0.2954
      2 C          61.3166   87.3819   11.0172 C.2     1  UNL1        0.2390
      3 O          60.3449   88.0935   11.9112 O.2     1  UNL1       -0.2736
      4 H          62.0734   87.3088    8.9878 H       1  UNL1        0.1499
      5 C          62.1693   86.2763   11.5655 C.3     1  UNL1        0.1568
      6 C          62.1655   84.8488   11.1050 C.3     1  UNL1        0.0442
      7 C          63.1694   84.0943   11.9255 C.3     1  UNL1        0.0738
      8 C          63.7936   85.0556   12.8931 C.3     1  UNL1        0.1120
      9 N          63.1755   86.4042   12.6706 N.3     1  UNL1       -0.1467
     10 S          63.5057   87.6601   13.4215 S.O2    1  UNL1        0.0637
     11 O          63.3550   88.4548   12.1582 O.2     1  UNL1       -0.1528
     12 O          63.6564   86.8654   14.6846 O.2     1  UNL1       -0.1528
     13 C          63.8359   88.9160   14.1721 C.ar    1  UNL1        0.1229
     14 C          63.2844   89.1333   15.5501 C.ar    1  UNL1        0.0199
     15 C          63.6146   90.3893   16.3007 C.ar    1  UNL1        0.0021
     16 C          64.4963   91.4280   15.6734 C.ar    1  UNL1        0.0104
     17 C          65.0478   91.2108   14.2954 C.ar    1  UNL1        0.0698
     18 C          64.7176   89.9549   13.5448 C.ar    1  UNL1        0.0302
     19 C          65.9295   92.2497   13.6682 C.1     1  UNL1        0.1005
     20 N          66.8112   93.2886   13.0409 N.1     1  UNL1       -0.1908
     21 N          63.4923   82.6349   11.8004 N.3     1  UNL1       -0.2984
     22 H          64.4828   82.5325   12.0214 H       1  UNL1        0.1232
     23 C          62.7562   81.6296   12.6355 C.3     1  UNL1        0.0540
     24 C          62.6108   80.1368   12.6154 C.3     1  UNL1        0.0158
     25 C          61.7151   80.2078   13.8164 C.3     1  UNL1        0.0027
     26 C          61.8603   81.7007   13.8365 C.3     1  UNL1        0.0158
     27 C          60.5830   88.8814    9.0263 C.3     1  UNL1        0.1758
     28 C          60.7015   90.2680    9.5862 C.2     1  UNL1        0.3353
     29 O          59.5345   90.8950   10.2898 O.2     1  UNL1       -0.2483
     30 O          61.9869   91.0276    9.4425 O.3     1  UNL1       -0.4474
     31 C          64.2005   91.9170   10.4714 C.3     1  UNL1        0.0513
     32 C          62.8877   91.2085   10.6281 C.3     1  UNL1        0.2086
     33 C          59.6119   88.6004    7.9182 C.3     1  UNL1        0.0574
     34 C          59.4651   89.5724    6.7851 C.ar    1  UNL1       -0.0199
     35 C          58.1018   90.0404    6.3703 C.ar    1  UNL1       -0.0029
     36 C          57.9551   91.0123    5.2373 C.ar    1  UNL1        0.0144
     37 C          59.1717   91.5162    4.5190 C.ar    1  UNL1        0.0505
     38 C          60.5351   91.0481    4.9338 C.ar    1  UNL1        0.0144
     39 C          60.6818   90.0762    6.0669 C.ar    1  UNL1       -0.0029
     40 N          59.0250   92.4881    3.3859 N.am    1  UNL1       -0.2803
     41 C          60.2248   92.8845    2.5777 C.2     1  UNL1        0.2512
     42 O          61.5714   92.3091    2.9025 O.2     1  UNL1       -0.2698
     43 H          58.1412   92.8658    3.1727 H       1  UNL1        0.1552
     44 C          60.0780   93.8565    1.4446 C.ar    1  UNL1        0.0778
     45 C          60.0568   95.3309    1.7192 C.ar    1  UNL1        0.0820
     46 CL         60.1823   95.8335    3.1269 Cl      1  UNL1       -0.0804
     47 C          59.9100   96.3028    0.5861 C.ar    1  UNL1        0.1104
     48 N          59.7845   95.8002   -0.8216 N.ar    1  UNL1       -0.2405
     49 C          59.8057   94.3257   -1.0962 C.ar    1  UNL1        0.1104
     50 C          59.9525   93.3539    0.0369 C.ar    1  UNL1        0.0820
     51 CL         59.9737   91.8793   -0.2377 Cl      1  UNL1       -0.0804
@<TRIPOS>BOND
     1    31    32    1
     2    32    30    1
     3    30    28    1
     4    28    29    2
     5    28    27    1
     6    27    33    1
     7    33    34    1
     8    34    35   ar
     9    35    36   ar
    10    36    37   ar
    11    37    40    1
    12    40    41   am
    13    41    42    2
    14    41    44    1
    15    44    45   ar
    16    45    46    1
    17    45    47   ar
    18    47    48   ar
    19    48    49   ar
    20    49    50   ar
    21    50    51    1
    22    37    38   ar
    23    38    39   ar
    24    27     1    1
    25     1     2   am
    26     2     3    2
    27     5     2    1
    28     5     6    1
    29     6     7    1
    30     7    21    1
    31    21    23    1
    32    23    24    1
    33    24    25    1
    34    25    26    1
    35     7     8    1
    36     8     9    1
    37     9    10    1
    38    10    11    2
    39    10    12    2
    40    10    13    1
    41    13    14   ar
    42    14    15   ar
    43    15    16   ar
    44    16    17   ar
    45    17    19    1
    46    19    20    3
    47    17    18   ar
    48    39    34   ar
    49     9     5    1
    50    18    13   ar
    51    50    44   ar
    52    26    23    1
    53    40    43    1
    54     1     4    1
    55    21    22    1
@<TRIPOS>MOLECULE
*****
 51 55 0 0 0
SMALL
GASTEIGER

@<TRIPOS>ATOM
      1 N          61.7454   89.6554    9.1795 N.am    1  UNL1       -0.2954
      2 C          62.1212   89.7871   10.6257 C.2     1  UNL1        0.2390
      3 O          61.4777   88.9019   11.6515 O.2     1  UNL1       -0.2736
      4 H          62.1677   90.2364    8.5063 H       1  UNL1        0.1499
      5 C          63.1404   90.8042   11.0461 C.3     1  UNL1        0.1568
      6 C          63.6054   91.9751   10.2321 C.3     1  UNL1        0.0442
      7 C          64.6260   92.7235   11.0372 C.3     1  UNL1        0.0738
      8 C          64.7919   92.0150   12.3489 C.3     1  UNL1        0.1120
      9 N          63.8738   90.8288   12.3545 N.3     1  UNL1       -0.1467
     10 S          63.7166   89.8408   13.4721 S.O2    1  UNL1        0.0637
     11 O          63.9913   88.7170   12.5172 O.2     1  UNL1       -0.1528
     12 O          63.4420   90.9644   14.4269 O.2     1  UNL1       -0.1528
     13 C          63.5594   88.8527   14.5896 C.ar    1  UNL1        0.1229
     14 C          63.0994   89.3149   15.9404 C.ar    1  UNL1        0.0199
     15 C          62.9423   88.3266   17.0579 C.ar    1  UNL1        0.0021
     16 C          63.2452   86.8762   16.8245 C.ar    1  UNL1        0.0104
     17 C          63.7052   86.4140   15.4737 C.ar    1  UNL1        0.0698
     18 C          63.8623   87.4021   14.3563 C.ar    1  UNL1        0.0302
     19 C          64.0081   84.9635   15.2404 C.1     1  UNL1        0.1005
     20 N          64.3111   83.5130   15.0072 N.1     1  UNL1       -0.1908
     21 N          65.3531   93.9626   10.6064 N.3     1  UNL1       -0.2984
     22 H          65.6107   94.4636   11.4567 H       1  UNL1        0.1232
     23 C          66.5971   93.8517    9.7756 C.3     1  UNL1        0.0540
     24 C          67.7389   92.8820    9.6997 C.3     1  UNL1        0.0158
     25 C          68.3563   93.6949    8.6007 C.3     1  UNL1        0.0027
     26 C          67.2145   94.6647    8.6765 C.3     1  UNL1        0.0158
     27 C          60.7261   88.6384    8.7591 C.3     1  UNL1        0.1758
     28 C          61.0346   87.1750    8.8754 C.2     1  UNL1        0.3353
     29 O          59.9905   86.1580    8.5209 O.2     1  UNL1       -0.2483
     30 O          62.3870   86.7287    9.3462 O.3     1  UNL1       -0.4474
     31 C          62.4413   85.3583   11.5528 C.3     1  UNL1        0.0513
     32 C          62.5383   85.4166   10.0570 C.3     1  UNL1        0.2086
     33 C          59.3984   89.0846    8.2225 C.3     1  UNL1        0.0574
     34 C          59.3339   89.9072    6.9697 C.ar    1  UNL1       -0.0199
     35 C          58.0078   90.3723    6.4453 C.ar    1  UNL1       -0.0029
     36 C          57.9433   91.1948    5.1927 C.ar    1  UNL1        0.0144
     37 C          59.2050   91.5523    4.4644 C.ar    1  UNL1        0.0505
     38 C          60.5312   91.0873    4.9888 C.ar    1  UNL1        0.0144
     39 C          60.5956   90.2647    6.2415 C.ar    1  UNL1       -0.0029
     40 N          59.1405   92.3749    3.2117 N.am    1  UNL1       -0.2803
     41 C          60.4060   92.8282    2.5461 C.2     1  UNL1        0.2512
     42 O          61.7360   92.4590    3.1332 O.2     1  UNL1       -0.2698
     43 H          58.2676   92.6173    2.8263 H       1  UNL1        0.1552
     44 C          60.3415   93.6508    1.2934 C.ar    1  UNL1        0.0778
     45 C          60.2890   95.1473    1.3807 C.ar    1  UNL1        0.0820
     46 CL         60.3010   95.8213    2.7207 Cl      1  UNL1       -0.0804
     47 C          60.2245   95.9698    0.1280 C.ar    1  UNL1        0.1104
     48 N          60.2125   95.2958   -1.2120 N.ar    1  UNL1       -0.2405
     49 C          60.2650   93.7993   -1.2993 C.ar    1  UNL1        0.1104
     50 C          60.3295   92.9768   -0.0466 C.ar    1  UNL1        0.0820
     51 CL         60.3820   91.4802   -0.1339 Cl      1  UNL1       -0.0804
@<TRIPOS>BOND
     1    31    32    1
     2    32    30    1
     3    30    28    1
     4    28    29    2
     5    28    27    1
     6    27    33    1
     7    33    34    1
     8    34    35   ar
     9    35    36   ar
    10    36    37   ar
    11    37    40    1
    12    40    41   am
    13    41    42    2
    14    41    44    1
    15    44    45   ar
    16    45    46    1
    17    45    47   ar
    18    47    48   ar
    19    48    49   ar
    20    49    50   ar
    21    50    51    1
    22    37    38   ar
    23    38    39   ar
    24    27     1    1
    25     1     2   am
    26     2     3    2
    27     5     2    1
    28     5     6    1
    29     6     7    1
    30     7    21    1
    31    21    23    1
    32    23    24    1
    33    24    25    1
    34    25    26    1
    35     7     8    1
    36     8     9    1
    37     9    10    1
    38    10    11    2
    39    10    12    2
    40    10    13    1
    41    13    14   ar
    42    14    15   ar
    43    15    16   ar
    44    16    17   ar
    45    17    19    1
    46    19    20    3
    47    17    18   ar
    48    39    34   ar
    49     9     5    1
    50    18    13   ar
    51    50    44   ar
    52    26    23    1
    53    40    43    1
    54     1     4    1
    55    21    22    1
@<TRIPOS>MOLECULE
*****
 51 55 0 0 0
SMALL
GASTEIGER

@<TRIPOS>ATOM
      1 N          61.4309   86.9629    9.8573 N.am    1  UNL1       -0.2954
      2 C          61.5023   86.3070   11.2044 C.2     1  UNL1        0.2390
      3 O          60.6871   86.8430   12.3437 O.2     1  UNL1       -0.2736
      4 H          61.9660   86.6111    9.1095 H       1  UNL1        0.1499
      5 C          62.3891   85.1151   11.4122 C.3     1  UNL1        0.1568
      6 C          62.7281   84.0782   10.3827 C.3     1  UNL1        0.0442
      7 C          63.6410   83.0731   11.0202 C.3     1  UNL1        0.0738
      8 C          63.8662   83.4888   12.4437 C.3     1  UNL1        0.1120
      9 N          63.0925   84.7508   12.6861 N.3     1  UNL1       -0.1467
     10 S          63.0326   85.5145   13.9758 S.O2    1  UNL1        0.0637
     11 O          62.2042   84.4219   14.5842 O.2     1  UNL1       -0.1528
     12 O          63.8609   86.6069   13.3674 O.2     1  UNL1       -0.1528
     13 C          62.9727   86.2780   15.2655 C.ar    1  UNL1        0.1229
     14 C          62.7372   85.5520   16.5567 C.ar    1  UNL1        0.0199
     15 C          62.6774   86.3156   17.8464 C.ar    1  UNL1        0.0021
     16 C          62.8530   87.8053   17.8448 C.ar    1  UNL1        0.0104
     17 C          63.0885   88.5313   16.5535 C.ar    1  UNL1        0.0698
     18 C          63.1484   87.7677   15.2639 C.ar    1  UNL1        0.0302
     19 C          63.2641   90.0210   16.5520 C.1     1  UNL1        0.1005
     20 N          63.4397   91.5107   16.5505 N.1     1  UNL1       -0.1908
     21 N          64.2260   81.8646   10.3516 N.3     1  UNL1       -0.2984
     22 H          65.1476   81.7175   10.7632 H       1  UNL1        0.1232
     23 C          63.5075   80.5495   10.4174 C.3     1  UNL1        0.0540
     24 C          62.8412   79.7581   11.5035 C.3     1  UNL1        0.0158
     25 C          62.4914   78.6897   10.5105 C.3     1  UNL1        0.0027
     26 C          63.1577   79.4811    9.4243 C.3     1  UNL1        0.0158
     27 C          60.5442   88.1547    9.6495 C.3     1  UNL1        0.1758
     28 C          59.7717   88.3012    8.3720 C.2     1  UNL1        0.3353
     29 O          58.9424   87.1601    7.8620 O.2     1  UNL1       -0.2483
     30 O          59.8285   89.5888    7.6046 O.3     1  UNL1       -0.4474
     31 C          58.8363   90.8948    5.5897 C.3     1  UNL1        0.0513
     32 C          59.3893   89.6273    6.1709 C.3     1  UNL1        0.2086
     33 C          60.4300   89.2001   10.7191 C.3     1  UNL1        0.0574
     34 C          61.6594   89.8997   11.2184 C.ar    1  UNL1       -0.0199
     35 C          61.9584   89.9334   12.6879 C.ar    1  UNL1       -0.0029
     36 C          63.1878   90.6330   13.1872 C.ar    1  UNL1        0.0144
     37 C          64.1180   91.2989   12.2170 C.ar    1  UNL1        0.0505
     38 C          63.8189   91.2652   10.7475 C.ar    1  UNL1        0.0144
     39 C          62.5896   90.5656   10.2483 C.ar    1  UNL1       -0.0029
     40 N          65.3474   91.9984   12.7164 N.am    1  UNL1       -0.2803
     41 C          66.1418   91.4066   13.8426 C.2     1  UNL1        0.2512
     42 O          65.7070   90.1152   14.4696 O.2     1  UNL1       -0.2698
     43 H          65.6328   92.8461   12.3049 H       1  UNL1        0.1552
     44 C          67.3712   92.1062   14.3420 C.ar    1  UNL1        0.0778
     45 C          67.3348   92.8483   15.6450 C.ar    1  UNL1        0.0820
     46 CL         66.0690   92.8908   16.4488 Cl      1  UNL1       -0.0804
     47 C          68.5641   93.5478   16.1443 C.ar    1  UNL1        0.1104
     48 N          69.8299   93.5053   15.3406 N.ar    1  UNL1       -0.2405
     49 C          69.8663   92.7632   14.0375 C.ar    1  UNL1        0.1104
     50 C          68.6370   92.0637   13.5382 C.ar    1  UNL1        0.0820
     51 CL         68.6733   91.3216   12.2351 Cl      1  UNL1       -0.0804
@<TRIPOS>BOND
     1    31    32    1
     2    32    30    1
     3    30    28    1
     4    28    29    2
     5    28    27    1
     6    27    33    1
     7    33    34    1
     8    34    35   ar
     9    35    36   ar
    10    36    37   ar
    11    37    40    1
    12    40    41   am
    13    41    42    2
    14    41    44    1
    15    44    45   ar
    16    45    46    1
    17    45    47   ar
    18    47    48   ar
    19    48    49   ar
    20    49    50   ar
    21    50    51    1
    22    37    38   ar
    23    38    39   ar
    24    27     1    1
    25     1     2   am
    26     2     3    2
    27     5     2    1
    28     5     6    1
    29     6     7    1
    30     7    21    1
    31    21    23    1
    32    23    24    1
    33    24    25    1
    34    25    26    1
    35     7     8    1
    36     8     9    1
    37     9    10    1
    38    10    11    2
    39    10    12    2
    40    10    13    1
    41    13    14   ar
    42    14    15   ar
    43    15    16   ar
    44    16    17   ar
    45    17    19    1
    46    19    20    3
    47    17    18   ar
    48    39    34   ar
    49     9     5    1
    50    18    13   ar
    51    50    44   ar
    52    26    23    1
    53    40    43    1
    54     1     4    1
    55    21    22    1
@<TRIPOS>MOLECULE
*****
 51 55 0 0 0
SMALL
GASTEIGER

@<TRIPOS>ATOM
      1 N          63.7220   90.1563   14.0027 N.am    1  UNL1       -0.2954
      2 C          62.3706   89.8334   13.4374 C.2     1  UNL1        0.2390
      3 O          61.1791   89.7476   14.3446 O.2     1  UNL1       -0.2736
      4 H          64.5040   90.2126   13.4073 H       1  UNL1        0.1499
      5 C          62.2107   89.5962   11.9649 C.3     1  UNL1        0.1568
      6 C          61.3268   88.5646   11.3289 C.3     1  UNL1        0.0442
      7 C          61.4765   88.6798    9.8408 C.3     1  UNL1        0.0738
      8 C          62.4529   89.7826    9.5572 C.3     1  UNL1        0.1120
      9 N          62.9068   90.3490   10.8699 N.3     1  UNL1       -0.1467
     10 S          63.8848   91.4711   11.0552 S.O2    1  UNL1        0.0637
     11 O          63.2230   92.2312    9.9441 O.2     1  UNL1       -0.1528
     12 O          64.5465   90.7110   12.1661 O.2     1  UNL1       -0.1528
     13 C          64.8627   92.5932   11.2403 C.ar    1  UNL1        0.1229
     14 C          65.4990   92.8204   12.5795 C.ar    1  UNL1        0.0199
     15 C          66.4770   93.9426   12.7645 C.ar    1  UNL1        0.0021
     16 C          66.8187   94.8376   11.6103 C.ar    1  UNL1        0.0104
     17 C          66.1824   94.6104   10.2711 C.ar    1  UNL1        0.0698
     18 C          65.2045   93.4883   10.0861 C.ar    1  UNL1        0.0302
     19 C          66.5242   95.5055    9.1169 C.1     1  UNL1        0.1005
     20 N          66.8660   96.4006    7.9627 N.1     1  UNL1       -0.1908
     21 N          60.7733   87.8397    8.8163 N.3     1  UNL1       -0.2984
     22 H          60.6020   88.4407    8.0101 H       1  UNL1        0.1232
     23 C          61.4225   86.5917    8.2960 C.3     1  UNL1        0.0540
     24 C          61.0659   85.5606    7.2666 C.3     1  UNL1        0.0158
     25 C          62.3407   84.8266    7.5601 C.3     1  UNL1        0.0027
     26 C          62.6974   85.8577    8.5895 C.3     1  UNL1        0.0158
     27 C          63.8819   90.3935   15.4752 C.3     1  UNL1        0.1758
     28 C          64.1251   91.7816   15.9892 C.2     1  UNL1        0.3353
     29 O          63.1501   92.4111   16.9395 O.2     1  UNL1       -0.2483
     30 O          65.3434   92.5402   15.5529 O.3     1  UNL1       -0.4474
     31 C          67.9097   92.1519   15.6694 C.3     1  UNL1        0.0513
     32 C          66.6087   92.4514   16.3535 C.3     1  UNL1        0.2086
     33 C          63.7985   89.2427   16.4336 C.3     1  UNL1        0.0574
     34 C          63.7275   87.8374   15.9139 C.ar    1  UNL1       -0.0199
     35 C          64.3890   87.4838   14.6149 C.ar    1  UNL1       -0.0029
     36 C          64.3180   86.0785   14.0952 C.ar    1  UNL1        0.0144
     37 C          63.5854   85.0268   14.8745 C.ar    1  UNL1        0.0505
     38 C          62.9239   85.3804   16.1735 C.ar    1  UNL1        0.0144
     39 C          62.9949   86.7857   16.6931 C.ar    1  UNL1       -0.0029
     40 N          63.5144   83.6215   14.3548 N.am    1  UNL1       -0.2803
     41 C          62.8990   83.3477   13.0145 C.2     1  UNL1        0.2512
     42 O          62.3546   84.4792   12.1940 O.2     1  UNL1       -0.2698
     43 H          63.8718   82.8788   14.8933 H       1  UNL1        0.1552
     44 C          62.8280   81.9424   12.4948 C.ar    1  UNL1        0.0778
     45 C          63.4005   81.6108   11.1486 C.ar    1  UNL1        0.0820
     46 CL         64.0441   82.6844   10.3221 Cl      1  UNL1       -0.0804
     47 C          63.3295   80.2055   10.6289 C.ar    1  UNL1        0.1104
     48 N          62.6860   79.1318   11.4554 N.ar    1  UNL1       -0.2405
     49 C          62.1135   79.4634   12.8016 C.ar    1  UNL1        0.1104
     50 C          62.1845   80.8687   13.3213 C.ar    1  UNL1        0.0820
     51 CL         61.6119   81.2004   14.6675 Cl      1  UNL1       -0.0804
@<TRIPOS>BOND
     1    31    32    1
     2    32    30    1
     3    30    28    1
     4    28    29    2
     5    28    27    1
     6    27    33    1
     7    33    34    1
     8    34    35   ar
     9    35    36   ar
    10    36    37   ar
    11    37    40    1
    12    40    41   am
    13    41    42    2
    14    41    44    1
    15    44    45   ar
    16    45    46    1
    17    45    47   ar
    18    47    48   ar
    19    48    49   ar
    20    49    50   ar
    21    50    51    1
    22    37    38   ar
    23    38    39   ar
    24    27     1    1
    25     1     2   am
    26     2     3    2
    27     5     2    1
    28     5     6    1
    29     6     7    1
    30     7    21    1
    31    21    23    1
    32    23    24    1
    33    24    25    1
    34    25    26    1
    35     7     8    1
    36     8     9    1
    37     9    10    1
    38    10    11    2
    39    10    12    2
    40    10    13    1
    41    13    14   ar
    42    14    15   ar
    43    15    16   ar
    44    16    17   ar
    45    17    19    1
    46    19    20    3
    47    17    18   ar
    48    39    34   ar
    49     9     5    1
    50    18    13   ar
    51    50    44   ar
    52    26    23    1
    53    40    43    1
    54     1     4    1
    55    21    22    1
@<TRIPOS>MOLECULE
*****
 51 55 0 0 0
SMALL
GASTEIGER

@<TRIPOS>ATOM
      1 N          64.2792   90.3152   14.0035 N.am    1  UNL1       -0.2954
      2 C          65.2767   91.4352   14.0342 C.2     1  UNL1        0.2390
      3 O          66.1280   91.6481   15.2507 O.2     1  UNL1       -0.2736
      4 H          63.7205   90.1755   13.2051 H       1  UNL1        0.1499
      5 C          65.4229   92.3420   12.8484 C.3     1  UNL1        0.1568
      6 C          66.4091   93.4641   12.7128 C.3     1  UNL1        0.0442
      7 C          66.2042   94.1017   11.3706 C.3     1  UNL1        0.0738
      8 C          65.0914   93.3736   10.6766 C.3     1  UNL1        0.1120
      9 N          64.6085   92.2861   11.5899 N.3     1  UNL1       -0.1467
     10 S          63.5050   91.3134   11.2963 S.O2    1  UNL1        0.0637
     11 O          64.2289   90.8650   10.0614 O.2     1  UNL1       -0.1528
     12 O          62.7812   91.7618   12.5312 O.2     1  UNL1       -0.1528
     13 C          62.4016   90.3407   11.0027 C.ar    1  UNL1        0.1229
     14 C          61.0031   90.6324   11.4600 C.ar    1  UNL1        0.0199
     15 C          59.8997   89.6596   11.1662 C.ar    1  UNL1        0.0021
     16 C          60.1948   88.3952   10.4152 C.ar    1  UNL1        0.0104
     17 C          61.5933   88.1035    9.9579 C.ar    1  UNL1        0.0698
     18 C          62.6966   89.0762   10.2516 C.ar    1  UNL1        0.0302
     19 C          61.8884   86.8390    9.2068 C.1     1  UNL1        0.1005
     20 N          62.1834   85.5745    8.4557 N.1     1  UNL1       -0.1908
     21 N          66.9765   95.2632   10.8191 N.3     1  UNL1       -0.2984
     22 H          67.9354   94.9423   10.6850 H       1  UNL1        0.1232
     23 C          66.5503   95.9038    9.5315 C.3     1  UNL1        0.0540
     24 C          67.0409   95.8658    8.1145 C.3     1  UNL1        0.0158
     25 C          65.9475   96.8097    7.7105 C.3     1  UNL1        0.0027
     26 C          65.4568   96.8478    9.1275 C.3     1  UNL1        0.0158
     27 C          64.1331   89.4084   15.1894 C.3     1  UNL1        0.1758
     28 C          63.1558   89.7463   16.2760 C.2     1  UNL1        0.3353
     29 O          63.1113   91.1359   16.8391 O.2     1  UNL1       -0.2483
     30 O          62.2231   88.6947   16.7995 O.3     1  UNL1       -0.4474
     31 C          62.4057   86.1594   17.3375 C.3     1  UNL1        0.0513
     32 C          62.7514   87.5836   17.6576 C.3     1  UNL1        0.2086
     33 C          64.9641   88.1636   15.2885 C.3     1  UNL1        0.0574
     34 C          64.5985   86.9516   14.4839 C.ar    1  UNL1       -0.0199
     35 C          65.2835   85.6430   14.7455 C.ar    1  UNL1       -0.0029
     36 C          64.9179   84.4311   13.9409 C.ar    1  UNL1        0.0144
     37 C          63.8674   84.5277   12.8746 C.ar    1  UNL1        0.0505
     38 C          63.1824   85.8363   12.6129 C.ar    1  UNL1        0.0144
     39 C          63.5480   87.0482   13.4176 C.ar    1  UNL1       -0.0029
     40 N          63.5018   83.3157   12.0699 N.am    1  UNL1       -0.2803
     41 C          63.5208   81.9582   12.7078 C.2     1  UNL1        0.2512
     42 O          63.9055   81.8127   14.1503 O.2     1  UNL1       -0.2698
     43 H          63.2493   83.4112   11.1231 H       1  UNL1        0.1552
     44 C          63.1552   80.7462   11.9031 C.ar    1  UNL1        0.0778
     45 C          62.5606   79.5474   12.5808 C.ar    1  UNL1        0.0820
     46 CL         62.3315   79.5606   14.0631 Cl      1  UNL1       -0.0804
     47 C          62.1950   78.3355   11.7761 C.ar    1  UNL1        0.1104
     48 N          62.4241   78.3223   10.2938 N.ar    1  UNL1       -0.2405
     49 C          63.0188   79.5211    9.6161 C.ar    1  UNL1        0.1104
     50 C          63.3843   80.7330   10.4208 C.ar    1  UNL1        0.0820
     51 CL         63.9790   81.9319    9.7431 Cl      1  UNL1       -0.0804
@<TRIPOS>BOND
     1    31    32    1
     2    32    30    1
     3    30    28    1
     4    28    29    2
     5    28    27    1
     6    27    33    1
     7    33    34    1
     8    34    35   ar
     9    35    36   ar
    10    36    37   ar
    11    37    40    1
    12    40    41   am
    13    41    42    2
    14    41    44    1
    15    44    45   ar
    16    45    46    1
    17    45    47   ar
    18    47    48   ar
    19    48    49   ar
    20    49    50   ar
    21    50    51    1
    22    37    38   ar
    23    38    39   ar
    24    27     1    1
    25     1     2   am
    26     2     3    2
    27     5     2    1
    28     5     6    1
    29     6     7    1
    30     7    21    1
    31    21    23    1
    32    23    24    1
    33    24    25    1
    34    25    26    1
    35     7     8    1
    36     8     9    1
    37     9    10    1
    38    10    11    2
    39    10    12    2
    40    10    13    1
    41    13    14   ar
    42    14    15   ar
    43    15    16   ar
    44    16    17   ar
    45    17    19    1
    46    19    20    3
    47    17    18   ar
    48    39    34   ar
    49     9     5    1
    50    18    13   ar
    51    50    44   ar
    52    26    23    1
    53    40    43    1
    54     1     4    1
    55    21    22    1
