@<TRIPOS>MOLECULE
*****
 23 25 0 0 0
SMALL
GASTEIGER

@<TRIPOS>ATOM
      1 C          64.1714   91.2018   12.7186 C.ar    1  UNL1        0.1386
      2 C          63.7253   89.8516   13.1959 C.ar    1  UNL1        0.0369
      3 C          62.9636   88.9447   12.2754 C.ar    1  UNL1        0.0046
      4 C          62.6481   89.3880   10.8776 C.ar    1  UNL1        0.0191
      5 C          63.0943   90.7381   10.4003 C.ar    1  UNL1        0.0046
      6 C          63.8559   91.6450   11.3208 C.ar    1  UNL1        0.0369
      7 C          61.8864   88.4810    9.9571 C.2     1  UNL1        0.0968
      8 C          62.3224   87.0571    9.7771 C.2     1  UNL1        0.0043
      9 C          61.5607   86.1501    8.8565 C.3     1  UNL1        0.1163
     10 C          60.3630   86.6671    8.1161 C.2     1  UNL1        0.2671
     11 O          59.6014   85.7602    7.1956 O.2     1  UNL1       -0.2711
     12 N          59.9270   88.0910    8.2962 N.am    1  UNL1       -0.0790
     13 N          60.6887   88.9979    9.2166 N.2     1  UNL1       -0.1564
     14 O          64.9331   92.1087   13.6391 O.3     1  UNL1       -0.4754
     15 C          66.2672   91.6832   14.1767 C.3     1  UNL1        0.2068
     16 C          67.5275   92.1408   13.5042 C.3     1  UNL1        0.0646
     17 C          67.6790   91.9991   12.0187 C.3     1  UNL1        0.0759
     18 C          68.6047   92.3742    8.9120 C.3     1  UNL1        0.0173
     19 C          67.7176   93.3037    9.6860 C.3     1  UNL1        0.0576
     20 C          67.1004   94.5688    9.1679 C.3     1  UNL1        0.0174
     21 C          66.2933   95.1784   10.2757 C.3     1  UNL1        0.0187
     22 C          66.4119   94.2899   11.4785 C.3     1  UNL1        0.0721
     23 N          67.2921   93.1313   11.1140 N.3     1  UNL1       -0.2738
@<TRIPOS>BOND
     1    19    18    1
     2    19    20    1
     3    20    21    1
     4    21    22    1
     5    22    23    1
     6    23    17    1
     7    17    16    1
     8    16    15    1
     9    15    14    1
    10    14     1    1
    11     1     2   ar
    12     2     3   ar
    13     3     4   ar
    14     4     7    1
    15     7     8    2
    16     8     9    1
    17     9    10    1
    18    10    11    2
    19    10    12    1
    20    12    13    2
    21     4     5   ar
    22     5     6   ar
    23    23    19    1
    24     6     1   ar
    25    13     7    1
@<TRIPOS>MOLECULE
*****
 23 25 0 0 0
SMALL
GASTEIGER

@<TRIPOS>ATOM
      1 C          64.0506   90.8554   13.1100 C.ar    1  UNL1        0.1386
      2 C          63.5305   91.4438   11.8320 C.ar    1  UNL1        0.0369
      3 C          62.8064   90.5752   10.8465 C.ar    1  UNL1        0.0046
      4 C          62.6024   89.1182   11.1390 C.ar    1  UNL1        0.0191
      5 C          63.1224   88.5298   12.4170 C.ar    1  UNL1        0.0046
      6 C          63.8465   89.3984   13.4025 C.ar    1  UNL1        0.0369
      7 C          61.8782   88.2496   10.1535 C.2     1  UNL1        0.0968
      8 C          60.7559   88.8174    9.3362 C.2     1  UNL1        0.0043
      9 C          60.0318   87.9488    8.3506 C.3     1  UNL1        0.1163
     10 C          60.4300   86.5125    8.1824 C.2     1  UNL1        0.2671
     11 O          59.7059   85.6439    7.1970 O.2     1  UNL1       -0.2711
     12 N          61.5523   85.9447    8.9998 N.am    1  UNL1       -0.0790
     13 N          62.2764   86.8133    9.9853 N.2     1  UNL1       -0.1564
     14 O          64.7747   91.7240   14.0955 O.3     1  UNL1       -0.4754
     15 C          66.2529   91.9403   13.9604 C.3     1  UNL1        0.2068
     16 C          66.7801   93.2846   13.5543 C.3     1  UNL1        0.0646
     17 C          66.2282   93.9712   12.3402 C.3     1  UNL1        0.0759
     18 C          66.7521   96.3735   10.1946 C.3     1  UNL1        0.0173
     19 C          67.1681   94.9413   10.0337 C.3     1  UNL1        0.0576
     20 C          67.8981   94.3620    8.8583 C.3     1  UNL1        0.0174
     21 C          68.1083   92.8996    9.1181 C.3     1  UNL1        0.0187
     22 C          67.5084   92.5753   10.4541 C.3     1  UNL1        0.0721
     23 N          66.9273   93.8371   11.0200 N.3     1  UNL1       -0.2738
@<TRIPOS>BOND
     1    19    18    1
     2    19    20    1
     3    20    21    1
     4    21    22    1
     5    22    23    1
     6    23    17    1
     7    17    16    1
     8    16    15    1
     9    15    14    1
    10    14     1    1
    11     1     2   ar
    12     2     3   ar
    13     3     4   ar
    14     4     7    1
    15     7     8    2
    16     8     9    1
    17     9    10    1
    18    10    11    2
    19    10    12    1
    20    12    13    2
    21     4     5   ar
    22     5     6   ar
    23    23    19    1
    24     6     1   ar
    25    13     7    1
@<TRIPOS>MOLECULE
*****
 23 25 0 0 0
SMALL
GASTEIGER

@<TRIPOS>ATOM
      1 C          62.4607   89.5557   10.7217 C.ar    1  UNL1        0.1386
      2 C          62.7973   89.0706   12.1006 C.ar    1  UNL1        0.0369
      3 C          63.7557   89.8459   12.9552 C.ar    1  UNL1        0.0046
      4 C          64.3775   91.1062   12.4310 C.ar    1  UNL1        0.0191
      5 C          64.0409   91.5913   11.0521 C.ar    1  UNL1        0.0046
      6 C          63.0825   90.8161   10.1975 C.ar    1  UNL1        0.0369
      7 C          65.3359   91.8815   13.2857 C.2     1  UNL1        0.0968
      8 C          65.9880   91.2250   14.4662 C.2     1  UNL1        0.0043
      9 C          66.9464   92.0003   15.3209 C.3     1  UNL1        0.1163
     10 C          67.2527   93.4321   14.9950 C.2     1  UNL1        0.2671
     11 O          68.2110   94.2073   15.8496 O.2     1  UNL1       -0.2711
     12 N          66.6005   94.0886   13.8144 N.am    1  UNL1       -0.0790
     13 N          65.6422   93.3133   12.9597 N.2     1  UNL1       -0.1564
     14 O          61.5023   88.7804    9.8670 O.3     1  UNL1       -0.4754
     15 C          61.8408   87.3834    9.4384 C.3     1  UNL1        0.2068
     16 C          61.2251   86.2121   10.1450 C.3     1  UNL1        0.0646
     17 C          61.8906   85.6338   11.3584 C.3     1  UNL1        0.0759
     18 C          62.9120   83.6691   13.7555 C.3     1  UNL1        0.0173
     19 C          63.3235   83.5902   12.3152 C.3     1  UNL1        0.0576
     20 C          64.2766   82.5943   11.7239 C.3     1  UNL1        0.0174
     21 C          64.3963   82.8818   10.2566 C.3     1  UNL1        0.0187
     22 C          63.5170   84.0554    9.9411 C.3     1  UNL1        0.0721
     23 N          62.8540   84.4932   11.2134 N.3     1  UNL1       -0.2738
@<TRIPOS>BOND
     1    19    18    1
     2    19    20    1
     3    20    21    1
     4    21    22    1
     5    22    23    1
     6    23    17    1
     7    17    16    1
     8    16    15    1
     9    15    14    1
    10    14     1    1
    11     1     2   ar
    12     2     3   ar
    13     3     4   ar
    14     4     7    1
    15     7     8    2
    16     8     9    1
    17     9    10    1
    18    10    11    2
    19    10    12    1
    20    12    13    2
    21     4     5   ar
    22     5     6   ar
    23    23    19    1
    24     6     1   ar
    25    13     7    1
@<TRIPOS>MOLECULE
*****
 23 25 0 0 0
SMALL
GASTEIGER

@<TRIPOS>ATOM
      1 C          63.3261   88.3129   16.2800 C.ar    1  UNL1        0.1386
      2 C          63.1958   89.7250   16.7688 C.ar    1  UNL1        0.0369
      3 C          63.7631   90.8539   15.9602 C.ar    1  UNL1        0.0046
      4 C          64.4607   90.5706   14.6629 C.ar    1  UNL1        0.0191
      5 C          64.5911   89.1585   14.1741 C.ar    1  UNL1        0.0046
      6 C          64.0238   88.0297   14.9826 C.ar    1  UNL1        0.0369
      7 C          65.0281   91.6996   13.8543 C.2     1  UNL1        0.0968
      8 C          64.8776   91.7029   12.3619 C.2     1  UNL1        0.0043
      9 C          65.4449   92.8318   11.5534 C.3     1  UNL1        0.1163
     10 C          66.1627   93.9574   12.2373 C.2     1  UNL1        0.2671
     11 O          66.7300   95.0863   11.4288 O.2     1  UNL1       -0.2711
     12 N          66.3132   93.9541   13.7298 N.am    1  UNL1       -0.0790
     13 N          65.7459   92.8252   14.5382 N.2     1  UNL1       -0.1564
     14 O          62.7588   87.1840   17.0885 O.3     1  UNL1       -0.4754
     15 C          63.1737   85.7718   16.7993 C.3     1  UNL1        0.2068
     16 C          62.2572   84.8622   16.0359 C.3     1  UNL1        0.0646
     17 C          62.7895   83.5976   15.4300 C.3     1  UNL1        0.0759
     18 C          62.3580   80.7934   13.8176 C.3     1  UNL1        0.0173
     19 C          62.6022   82.1378   13.1987 C.3     1  UNL1        0.0576
     20 C          62.6909   82.4292   11.7299 C.3     1  UNL1        0.0174
     21 C          62.9440   83.8984   11.5633 C.3     1  UNL1        0.0187
     22 C          63.0118   84.5148   12.9291 C.3     1  UNL1        0.0721
     23 N          62.8005   83.4267   13.9398 N.3     1  UNL1       -0.2738
@<TRIPOS>BOND
     1    19    18    1
     2    19    20    1
     3    20    21    1
     4    21    22    1
     5    22    23    1
     6    23    17    1
     7    17    16    1
     8    16    15    1
     9    15    14    1
    10    14     1    1
    11     1     2   ar
    12     2     3   ar
    13     3     4   ar
    14     4     7    1
    15     7     8    2
    16     8     9    1
    17     9    10    1
    18    10    11    2
    19    10    12    1
    20    12    13    2
    21     4     5   ar
    22     5     6   ar
    23    23    19    1
    24     6     1   ar
    25    13     7    1
@<TRIPOS>MOLECULE
*****
 23 25 0 0 0
SMALL
GASTEIGER

@<TRIPOS>ATOM
      1 C          63.8485   83.1736   14.5595 C.ar    1  UNL1        0.1386
      2 C          62.6735   83.7547   15.2887 C.ar    1  UNL1        0.0369
      3 C          62.6416   85.2187   15.6133 C.ar    1  UNL1        0.0046
      4 C          63.7847   86.1017   15.2089 C.ar    1  UNL1        0.0191
      5 C          64.9597   85.5207   14.4797 C.ar    1  UNL1        0.0046
      6 C          64.9916   84.0566   14.1551 C.ar    1  UNL1        0.0369
      7 C          63.7528   87.5659   15.5336 C.2     1  UNL1        0.0968
      8 C          64.3587   88.5578   14.5855 C.2     1  UNL1        0.0043
      9 C          64.3267   90.0219   14.9102 C.3     1  UNL1        0.1163
     10 C          63.6889   90.4941   16.1831 C.2     1  UNL1        0.2671
     11 O          63.6569   91.9581   16.5078 O.2     1  UNL1       -0.2711
     12 N          63.0830   89.5021   17.1312 N.am    1  UNL1       -0.0790
     13 N          63.1149   88.0380   16.8065 N.2     1  UNL1       -0.1564
     14 O          63.8804   81.7095   14.2348 O.3     1  UNL1       -0.4754
     15 C          63.5775   81.2435   12.8416 C.3     1  UNL1        0.2068
     16 C          62.7482   82.0974   11.9288 C.3     1  UNL1        0.0646
     17 C          63.4118   83.0963   11.0279 C.3     1  UNL1        0.0759
     18 C          63.1834   84.7469    8.2221 C.3     1  UNL1        0.0173
     19 C          62.7108   85.2205    9.5646 C.3     1  UNL1        0.0576
     20 C          62.0502   86.5359    9.8531 C.3     1  UNL1        0.0174
     21 C          61.7469   86.5902   11.3211 C.3     1  UNL1        0.0187
     22 C          62.2201   85.3083   11.9399 C.3     1  UNL1        0.0721
     23 N          62.8158   84.4618   10.8543 N.3     1  UNL1       -0.2738
@<TRIPOS>BOND
     1    19    18    1
     2    19    20    1
     3    20    21    1
     4    21    22    1
     5    22    23    1
     6    23    17    1
     7    17    16    1
     8    16    15    1
     9    15    14    1
    10    14     1    1
    11     1     2   ar
    12     2     3   ar
    13     3     4   ar
    14     4     7    1
    15     7     8    2
    16     8     9    1
    17     9    10    1
    18    10    11    2
    19    10    12    1
    20    12    13    2
    21     4     5   ar
    22     5     6   ar
    23    23    19    1
    24     6     1   ar
    25    13     7    1
@<TRIPOS>MOLECULE
*****
 23 25 0 0 0
SMALL
GASTEIGER

@<TRIPOS>ATOM
      1 C          63.4325   84.0132   11.6389 C.ar    1  UNL1        0.1386
      2 C          63.6105   84.0071   10.1495 C.ar    1  UNL1        0.0369
      3 C          62.8071   84.9416    9.2944 C.ar    1  UNL1        0.0046
      4 C          61.8257   85.8821    9.9287 C.ar    1  UNL1        0.0191
      5 C          61.6477   85.8882   11.4180 C.ar    1  UNL1        0.0046
      6 C          62.4512   84.9537   12.2731 C.ar    1  UNL1        0.0369
      7 C          61.0223   86.8166    9.0735 C.2     1  UNL1        0.0968
      8 C          60.1910   86.2759    7.9480 C.2     1  UNL1        0.0043
      9 C          59.3876   87.2104    7.0928 C.3     1  UNL1        0.1163
     10 C          59.4154   88.6856    7.3632 C.2     1  UNL1        0.2671
     11 O          58.6121   89.6201    6.5081 O.2     1  UNL1       -0.2711
     12 N          60.2467   89.2263    8.4887 N.am    1  UNL1       -0.0790
     13 N          61.0501   88.2918    9.3438 N.2     1  UNL1       -0.1564
     14 O          64.2360   83.0787   12.4941 O.3     1  UNL1       -0.4754
     15 C          64.3354   83.3130   13.9723 C.3     1  UNL1        0.2068
     16 C          64.7597   84.6546   14.4921 C.3     1  UNL1        0.0646
     17 C          64.0742   85.2467   15.6878 C.3     1  UNL1        0.0759
     18 C          62.5881   86.8348   18.1206 C.3     1  UNL1        0.0173
     19 C          63.1699   87.4581   16.8865 C.3     1  UNL1        0.0576
     20 C          63.1708   88.9207   16.5539 C.3     1  UNL1        0.0174
     21 C          63.8544   89.0948   15.2301 C.3     1  UNL1        0.0187
     22 C          64.2760   87.7396   14.7445 C.3     1  UNL1        0.0721
     23 N          63.8530   86.7281   15.7682 N.3     1  UNL1       -0.2738
@<TRIPOS>BOND
     1    19    18    1
     2    19    20    1
     3    20    21    1
     4    21    22    1
     5    22    23    1
     6    23    17    1
     7    17    16    1
     8    16    15    1
     9    15    14    1
    10    14     1    1
    11     1     2   ar
    12     2     3   ar
    13     3     4   ar
    14     4     7    1
    15     7     8    2
    16     8     9    1
    17     9    10    1
    18    10    11    2
    19    10    12    1
    20    12    13    2
    21     4     5   ar
    22     5     6   ar
    23    23    19    1
    24     6     1   ar
    25    13     7    1
@<TRIPOS>MOLECULE
*****
 23 25 0 0 0
SMALL
GASTEIGER

@<TRIPOS>ATOM
      1 C          62.2106   90.4304   11.2076 C.ar    1  UNL1        0.1386
      2 C          63.2720   91.2733   10.5650 C.ar    1  UNL1        0.0369
      3 C          64.4430   91.7490   11.3726 C.ar    1  UNL1        0.0046
      4 C          64.5527   91.3818   12.8228 C.ar    1  UNL1        0.0191
      5 C          63.4914   90.5389   13.4655 C.ar    1  UNL1        0.0046
      6 C          62.3203   90.0632   12.6578 C.ar    1  UNL1        0.0369
      7 C          65.7239   91.8576   13.6305 C.2     1  UNL1        0.0968
      8 C          65.5855   92.0484   15.1118 C.2     1  UNL1        0.0043
      9 C          66.7566   92.5242   15.9194 C.3     1  UNL1        0.1163
     10 C          68.0661   92.8091   15.2456 C.2     1  UNL1        0.2671
     11 O          69.2372   93.2848   16.0531 O.2     1  UNL1       -0.2711
     12 N          68.2045   92.6183   13.7642 N.am    1  UNL1       -0.0790
     13 N          67.0334   92.1425   12.9567 N.2     1  UNL1       -0.1564
     14 O          61.0395   89.9546   10.4000 O.3     1  UNL1       -0.4754
     15 C          61.1380   88.6804    9.6148 C.3     1  UNL1        0.2068
     16 C          62.1463   87.6385    9.9992 C.3     1  UNL1        0.0646
     17 C          61.7027   86.3865   10.6960 C.3     1  UNL1        0.0759
     18 C          63.0440   84.9916    8.0683 C.3     1  UNL1        0.0173
     19 C          63.2031   84.5334    9.4878 C.3     1  UNL1        0.0576
     20 C          64.0066   83.3537    9.9486 C.3     1  UNL1        0.0174
     21 C          63.8868   83.2656   11.4412 C.3     1  UNL1        0.0187
     22 C          63.0091   84.3911   11.9029 C.3     1  UNL1        0.0721
     23 N          62.5865   85.1746   10.6956 N.3     1  UNL1       -0.2738
@<TRIPOS>BOND
     1    19    18    1
     2    19    20    1
     3    20    21    1
     4    21    22    1
     5    22    23    1
     6    23    17    1
     7    17    16    1
     8    16    15    1
     9    15    14    1
    10    14     1    1
    11     1     2   ar
    12     2     3   ar
    13     3     4   ar
    14     4     7    1
    15     7     8    2
    16     8     9    1
    17     9    10    1
    18    10    11    2
    19    10    12    1
    20    12    13    2
    21     4     5   ar
    22     5     6   ar
    23    23    19    1
    24     6     1   ar
    25    13     7    1
@<TRIPOS>MOLECULE
*****
 23 25 0 0 0
SMALL
GASTEIGER

@<TRIPOS>ATOM
      1 C          63.2206   89.4891   12.3400 C.ar    1  UNL1        0.1386
      2 C          63.9339   89.0076   13.5685 C.ar    1  UNL1        0.0369
      3 C          63.9692   87.5428   13.8895 C.ar    1  UNL1        0.0046
      4 C          63.2911   86.5596   12.9820 C.ar    1  UNL1        0.0191
      5 C          62.5778   87.0411   11.7535 C.ar    1  UNL1        0.0046
      6 C          62.5425   88.5059   11.4325 C.ar    1  UNL1        0.0369
      7 C          63.3264   85.0947   13.3031 C.2     1  UNL1        0.0968
      8 C          63.9800   84.1344   12.3540 C.2     1  UNL1        0.0043
      9 C          64.0153   82.6696   12.6751 C.3     1  UNL1        0.1163
     10 C          63.3969   82.1650   13.9452 C.2     1  UNL1        0.2671
     11 O          63.4322   80.7003   14.2663 O.2     1  UNL1       -0.2711
     12 N          62.7433   83.1254   14.8942 N.am    1  UNL1       -0.0790
     13 N          62.7081   84.5902   14.5731 N.2     1  UNL1       -0.1564
     14 O          63.1853   90.9540   12.0190 O.3     1  UNL1       -0.4754
     15 C          64.4084   91.6328   11.4776 C.3     1  UNL1        0.2068
     16 C          65.3325   92.3648   12.4051 C.3     1  UNL1        0.0646
     17 C          66.7316   92.6865   11.9703 C.3     1  UNL1        0.0759
     18 C          68.4367   92.3210    9.2119 C.3     1  UNL1        0.0173
     19 C          67.7542   93.5769    9.6667 C.3     1  UNL1        0.0576
     20 C          67.7356   94.8853    8.9335 C.3     1  UNL1        0.0174
     21 C          66.9403   95.8620    9.7482 C.3     1  UNL1        0.0187
     22 C          66.4674   95.1572   10.9849 C.3     1  UNL1        0.0721
     23 N          66.9704   93.7449   10.9346 N.3     1  UNL1       -0.2738
@<TRIPOS>BOND
     1    19    18    1
     2    19    20    1
     3    20    21    1
     4    21    22    1
     5    22    23    1
     6    23    17    1
     7    17    16    1
     8    16    15    1
     9    15    14    1
    10    14     1    1
    11     1     2   ar
    12     2     3   ar
    13     3     4   ar
    14     4     7    1
    15     7     8    2
    16     8     9    1
    17     9    10    1
    18    10    11    2
    19    10    12    1
    20    12    13    2
    21     4     5   ar
    22     5     6   ar
    23    23    19    1
    24     6     1   ar
    25    13     7    1
@<TRIPOS>MOLECULE
*****
 23 25 0 0 0
SMALL
GASTEIGER

@<TRIPOS>ATOM
      1 C          61.2308   89.6620   10.6927 C.ar    1  UNL1        0.1386
      2 C          62.2537   90.4832    9.9651 C.ar    1  UNL1        0.0369
      3 C          63.3553   91.1570   10.7282 C.ar    1  UNL1        0.0046
      4 C          63.4341   91.0096   12.2188 C.ar    1  UNL1        0.0191
      5 C          62.4113   90.1884   12.9464 C.ar    1  UNL1        0.0046
      6 C          61.3096   89.5146   12.1833 C.ar    1  UNL1        0.0369
      7 C          64.5358   91.6834   12.9819 C.2     1  UNL1        0.0968
      8 C          65.6431   92.3770   12.2452 C.2     1  UNL1        0.0043
      9 C          66.7448   93.0508   13.0083 C.3     1  UNL1        0.1163
     10 C          66.7392   93.0311   14.5081 C.2     1  UNL1        0.2671
     11 O          67.8408   93.7048   15.2712 O.2     1  UNL1       -0.2711
     12 N          65.6318   92.3375   15.2449 N.am    1  UNL1       -0.0790
     13 N          64.5302   91.6637   14.4818 N.2     1  UNL1       -0.1564
     14 O          60.1291   88.9882    9.9296 O.3     1  UNL1       -0.4754
     15 C          60.0825   89.0888    8.4337 C.3     1  UNL1        0.2068
     16 C          59.7365   87.8830    7.6113 C.3     1  UNL1        0.0646
     17 C          59.7050   86.5250    8.2476 C.3     1  UNL1        0.0759
     18 C          62.0978   84.9585    6.6760 C.3     1  UNL1        0.0173
     19 C          62.0467   85.2399    8.1485 C.3     1  UNL1        0.0576
     20 C          63.0864   84.8505    9.1571 C.3     1  UNL1        0.0174
     21 C          62.6292   85.3300   10.5029 C.3     1  UNL1        0.0187
     22 C          61.3068   86.0156   10.3260 C.3     1  UNL1        0.0721
     23 N          60.9468   85.9599    8.8709 N.3     1  UNL1       -0.2738
@<TRIPOS>BOND
     1    19    18    1
     2    19    20    1
     3    20    21    1
     4    21    22    1
     5    22    23    1
     6    23    17    1
     7    17    16    1
     8    16    15    1
     9    15    14    1
    10    14     1    1
    11     1     2   ar
    12     2     3   ar
    13     3     4   ar
    14     4     7    1
    15     7     8    2
    16     8     9    1
    17     9    10    1
    18    10    11    2
    19    10    12    1
    20    12    13    2
    21     4     5   ar
    22     5     6   ar
    23    23    19    1
    24     6     1   ar
    25    13     7    1
