@<TRIPOS>MOLECULE
*****
 29 32 0 0 0
SMALL
GASTEIGER

@<TRIPOS>ATOM
      1 N          61.7919   88.2458   11.6230 N.pl3   1  UNL1       -0.3146
      2 H          60.8171   88.3835   11.6222 H       1  UNL1        0.1486
      3 C          62.7161   89.4256   11.6861 C.ar    1  UNL1        0.1595
      4 N          63.4787   89.8845   12.8935 N.ar    1  UNL1       -0.2246
      5 C          64.2738   91.0962   12.5065 C.ar    1  UNL1        0.0857
      6 C          64.0024   91.3861   11.0600 C.ar    1  UNL1        0.0284
      7 S          63.0397   90.3536   10.5530 S.2     1  UNL1       -0.0561
      8 C          64.5558   92.4893   10.2075 C.3     1  UNL1        0.0466
      9 C          65.5171   93.5751   10.5908 C.3     1  UNL1        0.0674
     10 S          66.1625   93.8257   11.9215 S.3     1  UNL1       -0.1132
     11 C          66.0061   93.0526   13.1974 C.ar    1  UNL1        0.0267
     12 C          66.8335   93.6426   14.3006 C.ar    1  UNL1        0.0062
     13 C          66.8204   93.0178   15.6642 C.ar    1  UNL1        0.0005
     14 C          65.9798   91.8031   15.9246 C.ar    1  UNL1        0.0001
     15 C          65.1524   91.2131   14.8213 C.ar    1  UNL1        0.0020
     16 C          65.1655   91.8379   13.4577 C.ar    1  UNL1        0.0236
     17 C          63.4753   84.0766   11.4373 C.3     1  UNL1        0.0175
     18 C          63.5749   84.8698   12.7065 C.3     1  UNL1        0.0031
     19 C          63.0137   86.2595   12.7684 C.3     1  UNL1        0.0196
     20 C          62.3531   86.8560   11.5611 C.3     1  UNL1        0.0708
     21 C          62.2535   86.0628   10.2919 C.3     1  UNL1        0.0196
     22 C          62.8146   84.6731   10.2300 C.3     1  UNL1        0.0031
     23 C          64.0364   82.6869   11.3754 C.3     1  UNL1        0.0910
     24 N          64.1899   81.8833   12.6328 N.3     1  UNL1       -0.1833
     25 H          64.8959   81.1720   12.4433 H       1  UNL1        0.1484
     26 C          61.8212   80.4625   13.8033 C.3     1  UNL1        0.1957
     27 S          63.0056   81.1729   13.2180 S.O2    1  UNL1        0.0426
     28 O          62.7568   80.5016   11.8999 O.2     1  UNL1       -0.1575
     29 O          63.2543   81.8442   14.5362 O.2     1  UNL1       -0.1575
@<TRIPOS>BOND
     1    26    27    1
     2    27    28    2
     3    27    29    2
     4    27    24    1
     5    24    23    1
     6    17    23    1
     7    17    18    1
     8    18    19    1
     9    19    20    1
    10    20     1    1
    11     1     3    1
    12     3     4   ar
    13     4     5   ar
    14     5     6   ar
    15     6     7   ar
    16     6     8    1
    17     8     9    1
    18     9    10    1
    19    10    11    1
    20    11    12   ar
    21    12    13   ar
    22    13    14   ar
    23    14    15   ar
    24    15    16   ar
    25    20    21    1
    26    21    22    1
    27    22    17    1
    28     7     3   ar
    29    16    11   ar
    30    16     5    1
    31    24    25    1
    32     1     2    1
@<TRIPOS>MOLECULE
*****
 29 32 0 0 0
SMALL
GASTEIGER

@<TRIPOS>ATOM
      1 N          61.6814   88.9245   11.0325 N.pl3   1  UNL1       -0.3146
      2 H          60.7467   89.1804   10.8593 H       1  UNL1        0.1486
      3 C          62.0874   87.4817   10.9730 C.ar    1  UNL1        0.1595
      4 N          62.1249   86.5279   12.1301 N.ar    1  UNL1       -0.2246
      5 C          62.5878   85.1961   11.6182 C.ar    1  UNL1        0.0857
      6 C          62.8365   85.3269   10.1448 C.ar    1  UNL1        0.0284
      7 S          62.5273   86.7394    9.7460 S.2     1  UNL1       -0.0561
      8 C          63.3090   84.2804    9.1796 C.3     1  UNL1        0.0466
      9 C          63.6495   82.8447    9.4494 C.3     1  UNL1        0.0674
     10 S          63.6016   82.1009   10.7512 S.3     1  UNL1       -0.1132
     11 C          63.2013   82.6091   12.1046 C.ar    1  UNL1        0.0267
     12 C          63.2952   81.5320   13.1442 C.ar    1  UNL1        0.0062
     13 C          62.9379   81.8323   14.5697 C.ar    1  UNL1        0.0005
     14 C          62.4867   83.2098   14.9555 C.ar    1  UNL1        0.0001
     15 C          62.3929   84.2870   13.9159 C.ar    1  UNL1        0.0020
     16 C          62.7502   83.9866   12.4904 C.ar    1  UNL1        0.0236
     17 C          64.7361   92.0833   12.0027 C.3     1  UNL1        0.0175
     18 C          64.2659   91.1413   13.0712 C.3     1  UNL1        0.0031
     19 C          63.2477   90.0884   12.7477 C.3     1  UNL1        0.0196
     20 C          62.6997   89.9775   11.3559 C.3     1  UNL1        0.0708
     21 C          63.1698   90.9195   10.2874 C.3     1  UNL1        0.0196
     22 C          64.1880   91.9724   10.6109 C.3     1  UNL1        0.0031
     23 C          65.7543   93.1363   12.3261 C.3     1  UNL1        0.0910
     24 N          67.0863   92.7426   12.8927 N.3     1  UNL1       -0.1833
     25 H          67.1608   91.7301   12.7936 H       1  UNL1        0.1484
     26 C          67.7514   93.3848   15.7466 C.3     1  UNL1        0.1957
     27 S          67.4188   93.0637   14.3196 S.O2    1  UNL1        0.0426
     28 O          66.1232   93.8075   14.4543 O.2     1  UNL1       -0.1575
     29 O          68.7145   92.3199   14.1850 O.2     1  UNL1       -0.1575
@<TRIPOS>BOND
     1    26    27    1
     2    27    28    2
     3    27    29    2
     4    27    24    1
     5    24    23    1
     6    17    23    1
     7    17    18    1
     8    18    19    1
     9    19    20    1
    10    20     1    1
    11     1     3    1
    12     3     4   ar
    13     4     5   ar
    14     5     6   ar
    15     6     7   ar
    16     6     8    1
    17     8     9    1
    18     9    10    1
    19    10    11    1
    20    11    12   ar
    21    12    13   ar
    22    13    14   ar
    23    14    15   ar
    24    15    16   ar
    25    20    21    1
    26    21    22    1
    27    22    17    1
    28     7     3   ar
    29    16    11   ar
    30    16     5    1
    31    24    25    1
    32     1     2    1
@<TRIPOS>MOLECULE
*****
 29 32 0 0 0
SMALL
GASTEIGER

@<TRIPOS>ATOM
      1 N          61.6637   89.0188   11.2352 N.pl3   1  UNL1       -0.3146
      2 H          60.7131   89.2702   11.1850 H       1  UNL1        0.1486
      3 C          62.0668   87.5799   11.1049 C.ar    1  UNL1        0.1595
      4 N          62.1178   86.5744   12.2169 N.ar    1  UNL1       -0.2246
      5 C          62.5722   85.2669   11.6389 C.ar    1  UNL1        0.0857
      6 C          62.8019   85.4643   10.1698 C.ar    1  UNL1        0.0284
      7 S          62.4896   86.8938    9.8398 S.2     1  UNL1       -0.0561
      8 C          63.2603   84.4624    9.1520 C.3     1  UNL1        0.0466
      9 C          63.6022   83.0155    9.3518 C.3     1  UNL1        0.0674
     10 S          63.5700   82.2134   10.6190 S.3     1  UNL1       -0.1132
     11 C          63.1881   82.6599   11.9991 C.ar    1  UNL1        0.0267
     12 C          63.2939   81.5364   12.9874 C.ar    1  UNL1        0.0062
     13 C          62.9555   81.7720   14.4296 C.ar    1  UNL1        0.0005
     14 C          62.5114   83.1309   14.8835 C.ar    1  UNL1        0.0001
     15 C          62.4057   84.2543   13.8953 C.ar    1  UNL1        0.0020
     16 C          62.7440   84.0188   12.4531 C.ar    1  UNL1        0.0236
     17 C          64.7991   92.1864   11.8557 C.3     1  UNL1        0.0175
     18 C          64.3616   91.3288   13.0059 C.3     1  UNL1        0.0031
     19 C          63.3164   90.2729   12.7990 C.3     1  UNL1        0.0196
     20 C          62.7089   90.0747   11.4421 C.3     1  UNL1        0.0708
     21 C          63.1464   90.9324   10.2918 C.3     1  UNL1        0.0196
     22 C          64.1916   91.9882   10.4987 C.3     1  UNL1        0.0031
     23 C          65.8443   93.2423   12.0625 C.3     1  UNL1        0.0910
     24 N          65.6768   94.5959   11.4381 N.3     1  UNL1       -0.1833
     25 H          64.7128   94.6513   11.1094 H       1  UNL1        0.1484
     26 C          67.4236   95.4143    9.1406 C.3     1  UNL1        0.1957
     27 S          66.5503   95.0051   10.2894 S.O2    1  UNL1        0.0426
     28 O          67.5541   93.9615   10.6808 O.2     1  UNL1       -0.1575
     29 O          65.5464   96.0487    9.8979 O.2     1  UNL1       -0.1575
@<TRIPOS>BOND
     1    26    27    1
     2    27    28    2
     3    27    29    2
     4    27    24    1
     5    24    23    1
     6    17    23    1
     7    17    18    1
     8    18    19    1
     9    19    20    1
    10    20     1    1
    11     1     3    1
    12     3     4   ar
    13     4     5   ar
    14     5     6   ar
    15     6     7   ar
    16     6     8    1
    17     8     9    1
    18     9    10    1
    19    10    11    1
    20    11    12   ar
    21    12    13   ar
    22    13    14   ar
    23    14    15   ar
    24    15    16   ar
    25    20    21    1
    26    21    22    1
    27    22    17    1
    28     7     3   ar
    29    16    11   ar
    30    16     5    1
    31    24    25    1
    32     1     2    1
@<TRIPOS>MOLECULE
*****
 29 32 0 0 0
SMALL
GASTEIGER

@<TRIPOS>ATOM
      1 N          62.1456   88.1237   11.6742 N.pl3   1  UNL1       -0.3146
      2 H          61.2708   88.3597   11.2892 H       1  UNL1        0.1486
      3 C          63.0279   89.1946   12.2439 C.ar    1  UNL1        0.1595
      4 N          63.5925   90.3639   11.4929 N.ar    1  UNL1       -0.2246
      5 C          64.4141   91.1762   12.4496 C.ar    1  UNL1        0.0857
      6 C          64.3572   90.5089   13.7918 C.ar    1  UNL1        0.0284
      7 S          63.5005   89.2843   13.6647 S.2     1  UNL1       -0.0561
      8 C          65.0115   90.9302   15.0741 C.3     1  UNL1        0.0466
      9 C          65.8844   92.1228   15.3310 C.3     1  UNL1        0.0674
     10 S          66.3184   93.1886   14.3689 S.3     1  UNL1       -0.1132
     11 C          65.9869   93.3251   12.9123 C.ar    1  UNL1        0.0267
     12 C          66.6287   94.5427   12.3160 C.ar    1  UNL1        0.0062
     13 C          66.4230   94.8646   10.8655 C.ar    1  UNL1        0.0005
     14 C          65.5755   93.9690   10.0113 C.ar    1  UNL1        0.0001
     15 C          64.9337   92.7515   10.6077 C.ar    1  UNL1        0.0020
     16 C          65.1394   92.4295   12.0582 C.ar    1  UNL1        0.0236
     17 C          63.4975   83.8318   11.7243 C.3     1  UNL1        0.0175
     18 C          63.6635   84.6848   12.9470 C.3     1  UNL1        0.0031
     19 C          63.2129   86.1154   12.9302 C.3     1  UNL1        0.0196
     20 C          62.5963   86.6930   11.6909 C.3     1  UNL1        0.0708
     21 C          62.4302   85.8400   10.4682 C.3     1  UNL1        0.0196
     22 C          62.8808   84.4095   10.4850 C.3     1  UNL1        0.0031
     23 C          63.9481   82.4012   11.7410 C.3     1  UNL1        0.0910
     24 N          63.9170   81.6200   13.0212 N.3     1  UNL1       -0.1833
     25 H          64.5686   80.8435   12.9083 H       1  UNL1        0.1484
     26 C          61.3349   80.4482   14.0007 C.3     1  UNL1        0.1957
     27 S          62.6259   81.0341   13.5109 S.O2    1  UNL1        0.0426
     28 O          62.5792   80.1343   12.3117 O.2     1  UNL1       -0.1575
     29 O          62.6726   81.9338   14.7103 O.2     1  UNL1       -0.1575
@<TRIPOS>BOND
     1    26    27    1
     2    27    28    2
     3    27    29    2
     4    27    24    1
     5    24    23    1
     6    17    23    1
     7    17    18    1
     8    18    19    1
     9    19    20    1
    10    20     1    1
    11     1     3    1
    12     3     4   ar
    13     4     5   ar
    14     5     6   ar
    15     6     7   ar
    16     6     8    1
    17     8     9    1
    18     9    10    1
    19    10    11    1
    20    11    12   ar
    21    12    13   ar
    22    13    14   ar
    23    14    15   ar
    24    15    16   ar
    25    20    21    1
    26    21    22    1
    27    22    17    1
    28     7     3   ar
    29    16    11   ar
    30    16     5    1
    31    24    25    1
    32     1     2    1
@<TRIPOS>MOLECULE
*****
 29 32 0 0 0
SMALL
GASTEIGER

@<TRIPOS>ATOM
      1 N          62.3115   88.1809   12.0591 N.pl3   1  UNL1       -0.3146
      2 H          62.2154   87.3685   12.6069 H       1  UNL1        0.1486
      3 C          63.1929   89.3009   12.5268 C.ar    1  UNL1        0.1595
      4 N          63.6961   90.4367   11.6862 N.ar    1  UNL1       -0.2246
      5 C          64.5400   91.3195   12.5572 C.ar    1  UNL1        0.0857
      6 C          64.5584   90.7292   13.9360 C.ar    1  UNL1        0.0284
      7 S          63.7258   89.4817   13.9173 S.2     1  UNL1       -0.0561
      8 C          65.2589   91.2368   15.1614 C.3     1  UNL1        0.0466
      9 C          66.1142   92.4601   15.3106 C.3     1  UNL1        0.0674
     10 S          66.4800   93.4778   14.2712 S.3     1  UNL1       -0.1132
     11 C          66.0811   93.5237   12.8259 C.ar    1  UNL1        0.0267
     12 C          66.6671   94.7182   12.1333 C.ar    1  UNL1        0.0062
     13 C          66.3897   94.9521   10.6779 C.ar    1  UNL1        0.0005
     14 C          65.5264   93.9915    9.9151 C.ar    1  UNL1        0.0001
     15 C          64.9403   92.7971   10.6077 C.ar    1  UNL1        0.0020
     16 C          65.2177   92.5632   12.0631 C.ar    1  UNL1        0.0236
     17 C          60.1064   88.5342    8.1524 C.3     1  UNL1        0.0175
     18 C          60.8439   87.2713    8.4858 C.3     1  UNL1        0.0031
     19 C          61.5789   87.1536    9.7880 C.3     1  UNL1        0.0196
     20 C          61.5764   88.2987   10.7569 C.3     1  UNL1        0.0708
     21 C          60.8389   89.5616   10.4235 C.3     1  UNL1        0.0196
     22 C          60.1039   89.6793    9.1213 C.3     1  UNL1        0.0031
     23 C          59.3713   88.6520    6.8501 C.3     1  UNL1        0.0910
     24 N          58.3869   89.7647    6.6426 N.3     1  UNL1       -0.1833
     25 H          57.4834   89.3282    6.4597 H       1  UNL1        0.1484
     26 C          58.8346   91.7757    4.4619 C.3     1  UNL1        0.1957
     27 S          58.6107   90.7702    5.5522 S.O2    1  UNL1        0.0426
     28 O          57.1382   91.0530    5.5106 O.2     1  UNL1       -0.1575
     29 O          60.0833   90.4874    5.5937 O.2     1  UNL1       -0.1575
@<TRIPOS>BOND
     1    26    27    1
     2    27    28    2
     3    27    29    2
     4    27    24    1
     5    24    23    1
     6    17    23    1
     7    17    18    1
     8    18    19    1
     9    19    20    1
    10    20     1    1
    11     1     3    1
    12     3     4   ar
    13     4     5   ar
    14     5     6   ar
    15     6     7   ar
    16     6     8    1
    17     8     9    1
    18     9    10    1
    19    10    11    1
    20    11    12   ar
    21    12    13   ar
    22    13    14   ar
    23    14    15   ar
    24    15    16   ar
    25    20    21    1
    26    21    22    1
    27    22    17    1
    28     7     3   ar
    29    16    11   ar
    30    16     5    1
    31    24    25    1
    32     1     2    1
@<TRIPOS>MOLECULE
*****
 29 32 0 0 0
SMALL
GASTEIGER

@<TRIPOS>ATOM
      1 N          62.7081   89.4903   12.9640 N.pl3   1  UNL1       -0.3146
      2 H          62.4775   89.2059   13.8778 H       1  UNL1        0.1486
      3 C          62.0107   88.8732   11.7880 C.ar    1  UNL1        0.1595
      4 N          62.5572   87.7873   10.9092 N.ar    1  UNL1       -0.2246
      5 C          61.5287   87.4767    9.8624 C.ar    1  UNL1        0.0857
      6 C          60.3467   88.3706   10.0944 C.ar    1  UNL1        0.0284
      7 S          60.6446   89.2336   11.2843 S.2     1  UNL1       -0.0561
      8 C          59.0645   88.4454    9.3195 C.3     1  UNL1        0.0466
      9 C          58.6476   87.6449    8.1214 C.3     1  UNL1        0.0674
     10 S          59.4101   86.5718    7.4023 S.3     1  UNL1       -0.1132
     11 C          60.7776   86.0341    7.7036 C.ar    1  UNL1        0.0267
     12 C          61.1698   84.9591    6.7338 C.ar    1  UNL1        0.0062
     13 C          62.5048   84.2869    6.8588 C.ar    1  UNL1        0.0005
     14 C          63.4477   84.6896    7.9537 C.ar    1  UNL1        0.0001
     15 C          63.0556   85.7646    8.9236 C.ar    1  UNL1        0.0020
     16 C          61.7205   86.4368    8.7985 C.ar    1  UNL1        0.0236
     17 C          65.8540   92.6418   12.3147 C.3     1  UNL1        0.0175
     18 C          64.9057   92.2893   11.2072 C.3     1  UNL1        0.0031
     19 C          63.8571   91.2388   11.4237 C.3     1  UNL1        0.0196
     20 C          63.7567   90.5408   12.7475 C.3     1  UNL1        0.0708
     21 C          64.7050   90.8933   13.8550 C.3     1  UNL1        0.0196
     22 C          65.7537   91.9438   13.6385 C.3     1  UNL1        0.0031
     23 C          66.9027   93.6923   12.0983 C.3     1  UNL1        0.0910
     24 N          66.5649   94.9454   11.3460 N.3     1  UNL1       -0.1833
     25 H          65.5499   95.0415   11.3747 H       1  UNL1        0.1484
     26 C          67.3818   95.2367    8.4742 C.3     1  UNL1        0.1957
     27 S          66.9733   95.0911    9.9101 S.O2    1  UNL1        0.0426
     28 O          65.8989   96.1182    9.7086 O.2     1  UNL1       -0.1575
     29 O          68.0478   94.0640   10.1115 O.2     1  UNL1       -0.1575
@<TRIPOS>BOND
     1    26    27    1
     2    27    28    2
     3    27    29    2
     4    27    24    1
     5    24    23    1
     6    17    23    1
     7    17    18    1
     8    18    19    1
     9    19    20    1
    10    20     1    1
    11     1     3    1
    12     3     4   ar
    13     4     5   ar
    14     5     6   ar
    15     6     7   ar
    16     6     8    1
    17     8     9    1
    18     9    10    1
    19    10    11    1
    20    11    12   ar
    21    12    13   ar
    22    13    14   ar
    23    14    15   ar
    24    15    16   ar
    25    20    21    1
    26    21    22    1
    27    22    17    1
    28     7     3   ar
    29    16    11   ar
    30    16     5    1
    31    24    25    1
    32     1     2    1
@<TRIPOS>MOLECULE
*****
 29 32 0 0 0
SMALL
GASTEIGER

@<TRIPOS>ATOM
      1 N          62.6442   89.8665   11.8623 N.pl3   1  UNL1       -0.3146
      2 H          61.7282   90.0004   11.5275 H       1  UNL1        0.1486
      3 C          63.0343   88.5543   12.4756 C.ar    1  UNL1        0.1595
      4 N          62.8253   87.1996   11.8665 N.ar    1  UNL1       -0.2246
      5 C          63.3637   86.1746   12.8202 C.ar    1  UNL1        0.0857
      6 C          63.9053   86.8959   14.0187 C.ar    1  UNL1        0.0284
      7 S          63.7018   88.3666   13.8057 S.2     1  UNL1       -0.0561
      8 C          64.5480   86.3197   15.2455 C.3     1  UNL1        0.0466
      9 C          64.8078   84.8799   15.5768 C.3     1  UNL1        0.0674
     10 S          64.4890   83.6609   14.7630 S.3     1  UNL1       -0.1132
     11 C          63.8317   83.5803   13.4170 C.ar    1  UNL1        0.0267
     12 C          63.7000   82.1591   12.9557 C.ar    1  UNL1        0.0062
     13 C          63.0675   81.8567   11.6297 C.ar    1  UNL1        0.0005
     14 C          62.5667   82.9755   10.7650 C.ar    1  UNL1        0.0001
     15 C          62.6984   84.3966   11.2264 C.ar    1  UNL1        0.0020
     16 C          63.3309   84.6990   12.5524 C.ar    1  UNL1        0.0236
     17 C          65.6614   93.1908   11.5527 C.3     1  UNL1        0.0175
     18 C          64.8963   92.7568   10.3376 C.3     1  UNL1        0.0031
     19 C          63.8906   91.6487   10.4409 C.3     1  UNL1        0.0196
     20 C          63.6500   90.9746   11.7591 C.3     1  UNL1        0.0708
     21 C          64.4150   91.4087   12.9741 C.3     1  UNL1        0.0196
     22 C          65.4207   92.5168   12.8709 C.3     1  UNL1        0.0031
     23 C          66.6671   94.2989   11.4495 C.3     1  UNL1        0.0910
     24 N          67.4957   94.4465   10.2078 N.3     1  UNL1       -0.1833
     25 H          68.4692   94.4976   10.5077 H       1  UNL1        0.1484
     26 C          67.0345   96.7676    8.3640 C.3     1  UNL1        0.1957
     27 S          67.2651   95.6071    9.2860 S.O2    1  UNL1        0.0426
     28 O          67.0264   96.4989   10.4682 O.2     1  UNL1       -0.1575
     29 O          67.5038   94.7154    8.1036 O.2     1  UNL1       -0.1575
@<TRIPOS>BOND
     1    26    27    1
     2    27    28    2
     3    27    29    2
     4    27    24    1
     5    24    23    1
     6    17    23    1
     7    17    18    1
     8    18    19    1
     9    19    20    1
    10    20     1    1
    11     1     3    1
    12     3     4   ar
    13     4     5   ar
    14     5     6   ar
    15     6     7   ar
    16     6     8    1
    17     8     9    1
    18     9    10    1
    19    10    11    1
    20    11    12   ar
    21    12    13   ar
    22    13    14   ar
    23    14    15   ar
    24    15    16   ar
    25    20    21    1
    26    21    22    1
    27    22    17    1
    28     7     3   ar
    29    16    11   ar
    30    16     5    1
    31    24    25    1
    32     1     2    1
@<TRIPOS>MOLECULE
*****
 29 32 0 0 0
SMALL
GASTEIGER

@<TRIPOS>ATOM
      1 N          62.1541   89.6131   13.1332 N.pl3   1  UNL1       -0.3146
      2 H          61.6862   89.4336   13.9806 H       1  UNL1        0.1486
      3 C          61.6379   89.0268   11.8527 C.ar    1  UNL1        0.1595
      4 N          62.2233   87.8562   11.1199 N.ar    1  UNL1       -0.2246
      5 C          61.3928   87.6141    9.8944 C.ar    1  UNL1        0.0857
      6 C          60.2943   88.6351    9.8699 C.ar    1  UNL1        0.0284
      7 S          60.4457   89.5081   11.0801 S.2     1  UNL1       -0.0561
      8 C          59.2057   88.8133    8.8534 C.3     1  UNL1        0.0466
      9 C          58.9468   88.0145    7.6104 C.3     1  UNL1        0.0674
     10 S          59.7127   86.8402    7.0770 S.3     1  UNL1       -0.1132
     11 C          60.9265   86.1747    7.6547 C.ar    1  UNL1        0.0267
     12 C          61.3807   85.0275    6.8017 C.ar    1  UNL1        0.0062
     13 C          62.5827   84.2247    7.2027 C.ar    1  UNL1        0.0005
     14 C          63.3304   84.5691    8.4566 C.ar    1  UNL1        0.0001
     15 C          62.8762   85.7163    9.3095 C.ar    1  UNL1        0.0020
     16 C          61.6743   86.5191    8.9086 C.ar    1  UNL1        0.0236
     17 C          65.8416   92.1922   13.1015 C.3     1  UNL1        0.0175
     18 C          64.9569   92.1336   11.8916 C.3     1  UNL1        0.0031
     19 C          63.7278   91.2739   11.9023 C.3     1  UNL1        0.0196
     20 C          63.3833   90.4728   13.1227 C.3     1  UNL1        0.0708
     21 C          64.2680   90.5314   14.3326 C.3     1  UNL1        0.0196
     22 C          65.4972   91.3911   14.3219 C.3     1  UNL1        0.0031
     23 C          67.0708   93.0519   13.0909 C.3     1  UNL1        0.0910
     24 N          67.4983   93.7645   14.3398 N.3     1  UNL1       -0.1833
     25 H          68.0519   94.5689   14.0449 H       1  UNL1        0.1484
     26 C          69.1103   92.3175   16.4152 C.3     1  UNL1        0.1957
     27 S          68.3044   93.0410   15.3774 S.O2    1  UNL1        0.0426
     28 O          69.3101   92.6611   14.3315 O.2     1  UNL1       -0.1575
     29 O          67.2986   93.4208   16.4235 O.2     1  UNL1       -0.1575
@<TRIPOS>BOND
     1    26    27    1
     2    27    28    2
     3    27    29    2
     4    27    24    1
     5    24    23    1
     6    17    23    1
     7    17    18    1
     8    18    19    1
     9    19    20    1
    10    20     1    1
    11     1     3    1
    12     3     4   ar
    13     4     5   ar
    14     5     6   ar
    15     6     7   ar
    16     6     8    1
    17     8     9    1
    18     9    10    1
    19    10    11    1
    20    11    12   ar
    21    12    13   ar
    22    13    14   ar
    23    14    15   ar
    24    15    16   ar
    25    20    21    1
    26    21    22    1
    27    22    17    1
    28     7     3   ar
    29    16    11   ar
    30    16     5    1
    31    24    25    1
    32     1     2    1
@<TRIPOS>MOLECULE
*****
 29 32 0 0 0
SMALL
GASTEIGER

@<TRIPOS>ATOM
      1 N          58.4711   89.1601    6.7148 N.pl3   1  UNL1       -0.3146
      2 H          57.5482   88.8273    6.6331 H       1  UNL1        0.1486
      3 C          59.3719   88.6178    7.7846 C.ar    1  UNL1        0.1595
      4 N          60.2090   89.4301    8.7278 N.ar    1  UNL1       -0.2246
      5 C          60.9482   88.4823    9.6251 C.ar    1  UNL1        0.0857
      6 C          60.5680   87.0843    9.2365 C.ar    1  UNL1        0.0284
      7 S          59.5939   87.1681    8.0991 S.2     1  UNL1       -0.0561
      8 C          61.0353   85.7887    9.8307 C.3     1  UNL1        0.0466
      9 C          61.9981   85.5710   10.9601 C.3     1  UNL1        0.0674
     10 S          62.7314   86.5953   11.7744 S.3     1  UNL1       -0.1132
     11 C          62.6832   88.0902   11.6603 C.ar    1  UNL1        0.0267
     12 C          63.5745   88.7462   12.6728 C.ar    1  UNL1        0.0062
     13 C          63.6723   90.2419   12.7288 C.ar    1  UNL1        0.0005
     14 C          62.8787   91.0817   11.7722 C.ar    1  UNL1        0.0001
     15 C          61.9873   90.4258   10.7598 C.ar    1  UNL1        0.0020
     16 C          61.8895   88.9300   10.7038 C.ar    1  UNL1        0.0236
     17 C          59.9873   92.3081    3.8791 C.3     1  UNL1        0.0175
     18 C          60.9474   91.3484    4.5172 C.3     1  UNL1        0.0031
     19 C          60.4419   90.2991    5.4624 C.3     1  UNL1        0.0196
     20 C          58.9765   90.2095    5.7696 C.3     1  UNL1        0.0708
     21 C          58.0164   91.1692    5.1314 C.3     1  UNL1        0.0196
     22 C          58.5219   92.2185    4.1862 C.3     1  UNL1        0.0031
     23 C          60.4927   93.3575    2.9338 C.3     1  UNL1        0.0910
     24 N          61.3305   92.9630    1.7537 N.3     1  UNL1       -0.1833
     25 H          61.3414   91.9434    1.7280 H       1  UNL1        0.1484
     26 C          64.1861   93.8645    1.5734 C.3     1  UNL1        0.1957
     27 S          62.7583   93.4137    1.6636 S.O2    1  UNL1        0.0426
     28 O          63.2142   92.0638    2.1325 O.2     1  UNL1       -0.1575
     29 O          62.3025   94.7637    1.1946 O.2     1  UNL1       -0.1575
@<TRIPOS>BOND
     1    26    27    1
     2    27    28    2
     3    27    29    2
     4    27    24    1
     5    24    23    1
     6    17    23    1
     7    17    18    1
     8    18    19    1
     9    19    20    1
    10    20     1    1
    11     1     3    1
    12     3     4   ar
    13     4     5   ar
    14     5     6   ar
    15     6     7   ar
    16     6     8    1
    17     8     9    1
    18     9    10    1
    19    10    11    1
    20    11    12   ar
    21    12    13   ar
    22    13    14   ar
    23    14    15   ar
    24    15    16   ar
    25    20    21    1
    26    21    22    1
    27    22    17    1
    28     7     3   ar
    29    16    11   ar
    30    16     5    1
    31    24    25    1
    32     1     2    1
