@<TRIPOS>MOLECULE
*****
 21 23 0 0 0
SMALL
GASTEIGER

@<TRIPOS>ATOM
      1 N          63.2970   84.3837   14.0272 N.pl3   1  UNL1       -0.3035
      2 C          63.2126   84.5278   12.5364 C.ar    1  UNL1        0.0481
      3 C          62.3933   85.6309   11.9348 C.ar    1  UNL1        0.0145
      4 C          62.3089   85.7751   10.4442 C.ar    1  UNL1        0.0013
      5 C          63.0436   84.8161    9.5552 C.ar    1  UNL1        0.0001
      6 C          63.8628   83.7129   10.1568 C.ar    1  UNL1        0.0013
      7 C          63.9473   83.5688   11.6474 C.ar    1  UNL1        0.0145
      8 C          64.3080   85.1767   14.8012 C.3     1  UNL1        0.1186
      9 CL         62.9393   85.7111   17.4168 Cl      1  UNL1       -0.0825
     10 C          63.3160   86.8532   16.5203 C.ar    1  UNL1        0.0553
     11 C          63.0085   88.2625   16.9316 C.ar    1  UNL1        0.0111
     12 C          63.3852   89.4047   16.0351 C.ar    1  UNL1        0.0008
     13 C          64.0696   89.1374   14.7274 C.ar    1  UNL1       -0.0002
     14 C          64.3772   87.7281   14.3160 C.ar    1  UNL1       -0.0018
     15 C          64.0004   86.5860   15.2125 C.ar    1  UNL1        0.0082
     16 C          62.3706   83.4466   14.7437 C.3     1  UNL1        0.0938
     17 C          62.2299   82.0281   14.2768 C.3     1  UNL1        0.0512
     18 C          61.0810   81.0821   14.0894 C.3     1  UNL1        0.0716
     19 N          62.0309   80.0220   13.6165 N.3     1  UNL1       -0.2973
     20 C          63.1799   80.9679   13.8038 C.3     1  UNL1        0.0716
     21 H          61.8836   79.7321   12.6497 H       1  UNL1        0.1233
@<TRIPOS>BOND
     1     9    10    1
     2    10    11   ar
     3    11    12   ar
     4    12    13   ar
     5    13    14   ar
     6    14    15   ar
     7    15     8    1
     8     8     1    1
     9     1    16    1
    10    16    17    1
    11    17    18    1
    12    18    19    1
    13    19    20    1
    14     1     2    1
    15     2     3   ar
    16     3     4   ar
    17     4     5   ar
    18     5     6   ar
    19     6     7   ar
    20    15    10   ar
    21    20    17    1
    22     7     2   ar
    23    19    21    1
@<TRIPOS>MOLECULE
*****
 21 23 0 0 0
SMALL
GASTEIGER

@<TRIPOS>ATOM
      1 N          62.1193   87.0088   10.5857 N.pl3   1  UNL1       -0.3035
      2 C          62.6166   88.3119   11.1380 C.ar    1  UNL1        0.0481
      3 C          63.2289   88.3616   12.5064 C.ar    1  UNL1        0.0145
      4 C          63.7261   89.6646   13.0586 C.ar    1  UNL1        0.0013
      5 C          63.6110   90.9178   12.2424 C.ar    1  UNL1        0.0001
      6 C          62.9987   90.8680   10.8740 C.ar    1  UNL1        0.0013
      7 C          62.5014   89.5651   10.3218 C.ar    1  UNL1        0.0145
      8 C          61.8251   85.8656   11.5112 C.3     1  UNL1        0.1186
      9 CL         62.4660   84.5049   14.1069 Cl      1  UNL1       -0.0825
     10 C          63.0420   83.9827   12.8242 C.ar    1  UNL1        0.0553
     11 C          63.9385   82.7802   12.8393 C.ar    1  UNL1        0.0111
     12 C          64.5145   82.2580   11.5565 C.ar    1  UNL1        0.0008
     13 C          64.1941   82.9382   10.2587 C.ar    1  UNL1       -0.0002
     14 C          63.2976   84.1408   10.2435 C.ar    1  UNL1       -0.0018
     15 C          62.7216   84.6630   11.5263 C.ar    1  UNL1        0.0082
     16 C          61.9163   86.8491    9.1082 C.3     1  UNL1        0.0938
     17 C          60.5277   86.7889    8.5441 C.3     1  UNL1        0.0512
     18 C          59.8406   85.9547    7.5039 C.3     1  UNL1        0.0716
     19 N          58.5640   86.7038    7.7463 N.3     1  UNL1       -0.2973
     20 C          59.2510   87.5381    8.7865 C.3     1  UNL1        0.0716
     21 H          57.8053   86.1270    8.1096 H       1  UNL1        0.1233
@<TRIPOS>BOND
     1     9    10    1
     2    10    11   ar
     3    11    12   ar
     4    12    13   ar
     5    13    14   ar
     6    14    15   ar
     7    15     8    1
     8     8     1    1
     9     1    16    1
    10    16    17    1
    11    17    18    1
    12    18    19    1
    13    19    20    1
    14     1     2    1
    15     2     3   ar
    16     3     4   ar
    17     4     5   ar
    18     5     6   ar
    19     6     7   ar
    20    15    10   ar
    21    20    17    1
    22     7     2   ar
    23    19    21    1
@<TRIPOS>MOLECULE
*****
 21 23 0 0 0
SMALL
GASTEIGER

@<TRIPOS>ATOM
      1 N          65.2590   91.9366   12.9518 N.pl3   1  UNL1       -0.3035
      2 C          64.2369   91.1606   12.1752 C.ar    1  UNL1        0.0481
      3 C          63.6374   89.9159   12.7594 C.ar    1  UNL1        0.0145
      4 C          62.6153   89.1399   11.9828 C.ar    1  UNL1        0.0013
      5 C          62.1927   89.6086   10.6221 C.ar    1  UNL1        0.0001
      6 C          62.7922   90.8533   10.0379 C.ar    1  UNL1        0.0013
      7 C          63.8143   91.6293   10.8145 C.ar    1  UNL1        0.0145
      8 C          65.7359   93.2654   12.4450 C.3     1  UNL1        0.1186
      9 CL         65.7133   95.7292   10.7335 Cl      1  UNL1       -0.0825
     10 C          66.5868   94.5672   10.3638 C.ar    1  UNL1        0.0553
     11 C          67.4489   94.6370    9.1383 C.ar    1  UNL1        0.0111
     12 C          68.3224   93.4750    8.7686 C.ar    1  UNL1        0.0008
     13 C          68.3337   92.2431    9.6243 C.ar    1  UNL1       -0.0002
     14 C          67.4715   92.1732   10.8498 C.ar    1  UNL1       -0.0018
     15 C          66.5981   93.3353   11.2196 C.ar    1  UNL1        0.0082
     16 C          65.8043   91.3838   14.2352 C.3     1  UNL1        0.0938
     17 C          66.9567   92.0624   14.9145 C.3     1  UNL1        0.0512
     18 C          68.4190   92.2189   14.6195 C.3     1  UNL1        0.0716
     19 N          68.5864   93.0220   15.8752 N.3     1  UNL1       -0.2973
     20 C          67.1241   92.8655   16.1703 C.3     1  UNL1        0.0716
     21 H          68.8784   93.9864   15.7168 H       1  UNL1        0.1233
@<TRIPOS>BOND
     1     9    10    1
     2    10    11   ar
     3    11    12   ar
     4    12    13   ar
     5    13    14   ar
     6    14    15   ar
     7    15     8    1
     8     8     1    1
     9     1    16    1
    10    16    17    1
    11    17    18    1
    12    18    19    1
    13    19    20    1
    14     1     2    1
    15     2     3   ar
    16     3     4   ar
    17     4     5   ar
    18     5     6   ar
    19     6     7   ar
    20    15    10   ar
    21    20    17    1
    22     7     2   ar
    23    19    21    1
@<TRIPOS>MOLECULE
*****
 21 23 0 0 0
SMALL
GASTEIGER

@<TRIPOS>ATOM
      1 N          62.2867   86.2319   10.4384 N.pl3   1  UNL1       -0.3035
      2 C          62.9533   84.9677   10.8938 C.ar    1  UNL1        0.0481
      3 C          63.5899   84.0521    9.8906 C.ar    1  UNL1        0.0145
      4 C          64.2565   82.7879   10.3460 C.ar    1  UNL1        0.0013
      5 C          64.2866   82.4393   11.8045 C.ar    1  UNL1        0.0001
      6 C          63.6500   83.3549   12.8078 C.ar    1  UNL1        0.0013
      7 C          62.9834   84.6191   12.3524 C.ar    1  UNL1        0.0145
      8 C          61.8864   87.2723   11.4421 C.3     1  UNL1        0.1186
      9 CL         63.7563   88.1617   13.6129 Cl      1  UNL1       -0.0825
     10 C          63.4347   89.0849   12.4752 C.ar    1  UNL1        0.0553
     11 C          64.0481   90.4527   12.4229 C.ar    1  UNL1        0.0111
     12 C          63.7266   91.3758   11.2852 C.ar    1  UNL1        0.0008
     13 C          62.7917   90.9312   10.1998 C.ar    1  UNL1       -0.0002
     14 C          62.1782   89.5633   10.2520 C.ar    1  UNL1       -0.0018
     15 C          62.4998   88.6401   11.3898 C.ar    1  UNL1        0.0082
     16 C          62.0204   86.4558    8.9793 C.3     1  UNL1        0.0938
     17 C          60.6094   86.5706    8.4834 C.3     1  UNL1        0.0512
     18 C          59.4252   87.4190    8.8409 C.3     1  UNL1        0.0716
     19 N          58.6140   86.7330    7.7821 N.3     1  UNL1       -0.2973
     20 C          59.7982   85.8846    7.4244 C.3     1  UNL1        0.0716
     21 H          58.3018   87.3497    7.0319 H       1  UNL1        0.1233
@<TRIPOS>BOND
     1     9    10    1
     2    10    11   ar
     3    11    12   ar
     4    12    13   ar
     5    13    14   ar
     6    14    15   ar
     7    15     8    1
     8     8     1    1
     9     1    16    1
    10    16    17    1
    11    17    18    1
    12    18    19    1
    13    19    20    1
    14     1     2    1
    15     2     3   ar
    16     3     4   ar
    17     4     5   ar
    18     5     6   ar
    19     6     7   ar
    20    15    10   ar
    21    20    17    1
    22     7     2   ar
    23    19    21    1
@<TRIPOS>MOLECULE
*****
 21 23 0 0 0
SMALL
GASTEIGER

@<TRIPOS>ATOM
      1 N          65.2128   92.0349   12.6521 N.pl3   1  UNL1       -0.3035
      2 C          66.2513   92.2082   13.7206 C.ar    1  UNL1        0.0481
      3 C          67.6982   91.9675   13.4063 C.ar    1  UNL1        0.0145
      4 C          68.7366   92.1408   14.4747 C.ar    1  UNL1        0.0013
      5 C          68.3282   92.5547   15.8574 C.ar    1  UNL1        0.0001
      6 C          66.8814   92.7954   16.1716 C.ar    1  UNL1        0.0013
      7 C          65.8429   92.6221   15.1032 C.ar    1  UNL1        0.0145
      8 C          63.8708   91.4602   12.9967 C.3     1  UNL1        0.1186
      9 CL         64.0360   88.5649   13.7646 Cl      1  UNL1       -0.0825
     10 C          63.3367   88.9667   12.4998 C.ar    1  UNL1        0.0553
     11 C          62.7201   87.9208   11.6190 C.ar    1  UNL1        0.0111
     12 C          62.0208   88.3226   10.3542 C.ar    1  UNL1        0.0008
     13 C          61.9383   89.7703    9.9703 C.ar    1  UNL1       -0.0002
     14 C          62.5549   90.8162   10.8511 C.ar    1  UNL1       -0.0018
     15 C          63.2542   90.4144   12.1159 C.ar    1  UNL1        0.0082
     16 C          65.5164   92.4362   11.2390 C.3     1  UNL1        0.0938
     17 C          66.1701   93.7568   10.9584 C.3     1  UNL1        0.0512
     18 C          66.1095   95.1227   11.5753 C.3     1  UNL1        0.0716
     19 N          67.0946   95.6244   10.5615 N.3     1  UNL1       -0.2973
     20 C          67.1553   94.2585    9.9445 C.3     1  UNL1        0.0716
     21 H          67.9784   95.9406   10.9607 H       1  UNL1        0.1233
@<TRIPOS>BOND
     1     9    10    1
     2    10    11   ar
     3    11    12   ar
     4    12    13   ar
     5    13    14   ar
     6    14    15   ar
     7    15     8    1
     8     8     1    1
     9     1    16    1
    10    16    17    1
    11    17    18    1
    12    18    19    1
    13    19    20    1
    14     1     2    1
    15     2     3   ar
    16     3     4   ar
    17     4     5   ar
    18     5     6   ar
    19     6     7   ar
    20    15    10   ar
    21    20    17    1
    22     7     2   ar
    23    19    21    1
@<TRIPOS>MOLECULE
*****
 21 23 0 0 0
SMALL
GASTEIGER

@<TRIPOS>ATOM
      1 N          62.1701   86.3134   10.4059 N.pl3   1  UNL1       -0.3035
      2 C          62.8917   85.1136   10.9445 C.ar    1  UNL1        0.0481
      3 C          62.9542   84.8780   12.4245 C.ar    1  UNL1        0.0145
      4 C          63.6757   83.6783   12.9631 C.ar    1  UNL1        0.0013
      5 C          64.3347   82.7143   12.0217 C.ar    1  UNL1        0.0001
      6 C          64.2722   82.9499   10.5416 C.ar    1  UNL1        0.0013
      7 C          63.5507   84.1496   10.0030 C.ar    1  UNL1        0.0145
      8 C          61.6280   87.3477   11.3474 C.3     1  UNL1        0.1186
      9 CL         61.3779   89.7870    9.6189 Cl      1  UNL1       -0.0825
     10 C          62.3088   89.7934   10.7951 C.ar    1  UNL1        0.0553
     11 C          63.1146   91.0195   11.1071 C.ar    1  UNL1        0.0111
     12 C          64.0455   91.0260   12.2833 C.ar    1  UNL1        0.0008
     13 C          64.1706   89.8064   13.1475 C.ar    1  UNL1       -0.0002
     14 C          63.3647   88.5802   12.8355 C.ar    1  UNL1       -0.0018
     15 C          62.4338   88.5737   11.6594 C.ar    1  UNL1        0.0082
     16 C          61.9907   86.4788    8.9259 C.3     1  UNL1        0.0938
     17 C          60.6137   86.4663    8.3313 C.3     1  UNL1        0.0512
     18 C          59.3338   87.1994    8.6042 C.3     1  UNL1        0.0716
     19 N          58.6662   86.4486    7.4904 N.3     1  UNL1       -0.2973
     20 C          59.9460   85.7154    7.2175 C.3     1  UNL1        0.0716
     21 H          58.3520   87.0388    6.7201 H       1  UNL1        0.1233
@<TRIPOS>BOND
     1     9    10    1
     2    10    11   ar
     3    11    12   ar
     4    12    13   ar
     5    13    14   ar
     6    14    15   ar
     7    15     8    1
     8     8     1    1
     9     1    16    1
    10    16    17    1
    11    17    18    1
    12    18    19    1
    13    19    20    1
    14     1     2    1
    15     2     3   ar
    16     3     4   ar
    17     4     5   ar
    18     5     6   ar
    19     6     7   ar
    20    15    10   ar
    21    20    17    1
    22     7     2   ar
    23    19    21    1
@<TRIPOS>MOLECULE
*****
 21 23 0 0 0
SMALL
GASTEIGER

@<TRIPOS>ATOM
      1 N          65.9473   92.5928   12.4851 N.pl3   1  UNL1       -0.3035
      2 C          64.7669   91.7634   12.0742 C.ar    1  UNL1        0.0481
      3 C          64.1963   91.9029   10.6940 C.ar    1  UNL1        0.0145
      4 C          63.0159   91.0735   10.2830 C.ar    1  UNL1        0.0013
      5 C          62.4061   90.1048   11.2524 C.ar    1  UNL1        0.0001
      6 C          62.9767   89.9654   12.6326 C.ar    1  UNL1        0.0013
      7 C          64.1571   90.7947   13.0435 C.ar    1  UNL1        0.0145
      8 C          67.0412   92.8804   11.4998 C.3     1  UNL1        0.1186
      9 CL         68.2738   92.8230    8.7653 Cl      1  UNL1       -0.0825
     10 C          67.5692   94.0574    9.2446 C.ar    1  UNL1        0.0553
     11 C          67.4808   95.2630    8.3566 C.ar    1  UNL1        0.0111
     12 C          66.7761   96.4974    8.8358 C.ar    1  UNL1        0.0008
     13 C          66.1598   96.5262   10.2030 C.ar    1  UNL1       -0.0002
     14 C          66.2482   95.3205   11.0911 C.ar    1  UNL1       -0.0018
     15 C          66.9528   94.0861   10.6118 C.ar    1  UNL1        0.0082
     16 C          66.0339   93.1345   13.8811 C.3     1  UNL1        0.0938
     17 C          67.1995   92.7751   14.7542 C.3     1  UNL1        0.0512
     18 C          68.1408   93.5416   15.6353 C.3     1  UNL1        0.0716
     19 N          68.8478   92.2669   15.9888 N.3     1  UNL1       -0.2973
     20 C          67.9065   91.5003   15.1078 C.3     1  UNL1        0.0716
     21 H          68.7894   92.0184   16.9764 H       1  UNL1        0.1233
@<TRIPOS>BOND
     1     9    10    1
     2    10    11   ar
     3    11    12   ar
     4    12    13   ar
     5    13    14   ar
     6    14    15   ar
     7    15     8    1
     8     8     1    1
     9     1    16    1
    10    16    17    1
    11    17    18    1
    12    18    19    1
    13    19    20    1
    14     1     2    1
    15     2     3   ar
    16     3     4   ar
    17     4     5   ar
    18     5     6   ar
    19     6     7   ar
    20    15    10   ar
    21    20    17    1
    22     7     2   ar
    23    19    21    1
@<TRIPOS>MOLECULE
*****
 21 23 0 0 0
SMALL
GASTEIGER

@<TRIPOS>ATOM
      1 N          62.5227   86.6630   11.4167 N.pl3   1  UNL1       -0.3035
      2 C          63.1707   87.4947   12.4837 C.ar    1  UNL1        0.0481
      3 C          63.2112   88.9881   12.3495 C.ar    1  UNL1        0.0145
      4 C          63.8592   89.8198   13.4164 C.ar    1  UNL1        0.0013
      5 C          64.4666   89.1580   14.6177 C.ar    1  UNL1        0.0001
      6 C          64.4261   87.6645   14.7519 C.ar    1  UNL1        0.0013
      7 C          63.7782   86.8329   13.6850 C.ar    1  UNL1        0.0145
      8 C          62.1845   87.2759   10.0900 C.3     1  UNL1        0.1186
      9 CL         59.4231   87.0878    8.9328 Cl      1  UNL1       -0.0825
     10 C          60.5469   86.3034    8.3230 C.ar    1  UNL1        0.0553
     11 C          60.2900   85.4250    7.1346 C.ar    1  UNL1        0.0111
     12 C          61.4138   84.6405    6.5249 C.ar    1  UNL1        0.0008
     13 C          62.7944   84.7346    7.1035 C.ar    1  UNL1       -0.0002
     14 C          63.0514   85.6131    8.2919 C.ar    1  UNL1       -0.0018
     15 C          61.9276   86.3975    8.9017 C.ar    1  UNL1        0.0082
     16 C          62.2130   85.2185   11.6763 C.3     1  UNL1        0.0938
     17 C          63.3066   84.1938   11.6130 C.3     1  UNL1        0.0512
     18 C          64.2635   83.6012   12.6044 C.3     1  UNL1        0.0716
     19 N          64.8532   82.7447   11.5234 N.3     1  UNL1       -0.2973
     20 C          63.8962   83.3372   10.5319 C.3     1  UNL1        0.0716
     21 H          64.7310   81.7431   11.6727 H       1  UNL1        0.1233
@<TRIPOS>BOND
     1     9    10    1
     2    10    11   ar
     3    11    12   ar
     4    12    13   ar
     5    13    14   ar
     6    14    15   ar
     7    15     8    1
     8     8     1    1
     9     1    16    1
    10    16    17    1
    11    17    18    1
    12    18    19    1
    13    19    20    1
    14     1     2    1
    15     2     3   ar
    16     3     4   ar
    17     4     5   ar
    18     5     6   ar
    19     6     7   ar
    20    15    10   ar
    21    20    17    1
    22     7     2   ar
    23    19    21    1
@<TRIPOS>MOLECULE
*****
 21 23 0 0 0
SMALL
GASTEIGER

@<TRIPOS>ATOM
      1 N          63.1457   85.7781   12.5184 N.pl3   1  UNL1       -0.3035
      2 C          63.4552   87.1701   12.9838 C.ar    1  UNL1        0.0481
      3 C          64.1586   87.3848   14.2912 C.ar    1  UNL1        0.0145
      4 C          64.4681   88.7767   14.7566 C.ar    1  UNL1        0.0013
      5 C          64.0742   89.9540   13.9147 C.ar    1  UNL1        0.0001
      6 C          63.3708   89.7393   12.6074 C.ar    1  UNL1        0.0013
      7 C          63.0613   88.3474   12.1419 C.ar    1  UNL1        0.0145
      8 C          63.9274   84.6163   13.0562 C.3     1  UNL1        0.1186
      9 CL         62.1435   83.9775   15.3821 Cl      1  UNL1       -0.0825
     10 C          62.3939   82.9450   14.3231 C.ar    1  UNL1        0.0553
     11 C          61.7524   81.5931   14.4271 C.ar    1  UNL1        0.0111
     12 C          62.0027   80.5607   13.3682 C.ar    1  UNL1        0.0008
     13 C          62.8946   80.8801   12.2052 C.ar    1  UNL1       -0.0002
     14 C          63.5362   82.2320   12.1012 C.ar    1  UNL1       -0.0018
     15 C          63.2858   83.2645   13.1602 C.ar    1  UNL1        0.0082
     16 C          62.0545   85.5479   11.5152 C.3     1  UNL1        0.0938
     17 C          62.3898   85.4177   10.0590 C.3     1  UNL1        0.0512
     18 C          61.9333   86.0948    8.8008 C.3     1  UNL1        0.0716
     19 N          62.8639   85.2335    7.9996 N.3     1  UNL1       -0.2973
     20 C          63.3205   84.5563    9.2577 C.3     1  UNL1        0.0716
     21 H          63.5974   85.7512    7.5156 H       1  UNL1        0.1233
@<TRIPOS>BOND
     1     9    10    1
     2    10    11   ar
     3    11    12   ar
     4    12    13   ar
     5    13    14   ar
     6    14    15   ar
     7    15     8    1
     8     8     1    1
     9     1    16    1
    10    16    17    1
    11    17    18    1
    12    18    19    1
    13    19    20    1
    14     1     2    1
    15     2     3   ar
    16     3     4   ar
    17     4     5   ar
    18     5     6   ar
    19     6     7   ar
    20    15    10   ar
    21    20    17    1
    22     7     2   ar
    23    19    21    1
