@<TRIPOS>MOLECULE
*****
 41 46 0 0 0
SMALL
GASTEIGER

@<TRIPOS>ATOM
      1 C          65.8253   91.3750   14.1423 C.ar    1  UNL1        0.0854
      2 N          65.2597   90.2698   14.9841 N.ar    1  UNL1       -0.2279
      3 C          64.0904   89.4721   14.4876 C.ar    1  UNL1        0.1596
      4 N          63.5248   88.3669   15.3293 N.pl3   1  UNL1       -0.3402
      5 C          63.4868   89.7795   13.1491 C.ar    1  UNL1        0.1695
      6 C          64.0525   90.8847   12.3073 C.ar    1  UNL1        0.0411
      7 C          65.2218   91.6824   12.8040 C.ar    1  UNL1        0.0209
      8 H          63.9209   88.1651   16.2078 H       1  UNL1        0.1438
      9 H          62.7574   87.8433   15.0034 H       1  UNL1        0.1438
     10 C          65.7874   92.7875   11.9622 C.2     1  UNL1        0.0308
     11 C          65.4570   94.2160   12.2791 C.2     1  UNL1        0.2321
     12 N          66.0227   95.3211   11.4373 N.2     1  UNL1       -0.0292
     13 C          66.9187   94.9980   10.2786 C.2     1  UNL1        0.3991
     14 N          67.6192   95.8686    9.2781 N.2     1  UNL1        0.0860
     15 N          68.3826   94.9785    8.3428 N.2     1  UNL1       -0.0384
     16 C          68.1539   93.5575    8.7653 C.2     1  UNL1        0.1096
     17 C          68.7289   92.3385    8.1070 C.3     1  UNL1        0.0561
     18 C          67.2491   93.5695    9.9617 C.2     1  UNL1        0.0901
     19 C          66.6835   92.4644   10.8035 C.3     1  UNL1        0.0658
     20 C          68.8258   91.3824   12.8592 C.3     1  UNL1        0.0725
     21 C          68.3737   92.1761   14.0491 C.ar    1  UNL1        0.1248
     22 O          69.2215   93.1126   14.8580 O.2     1  UNL1       -0.4546
     23 C          68.3662   93.6879   15.9478 C.ar    1  UNL1        0.1792
     24 C          66.9899   93.1070   15.8123 C.ar    1  UNL1        0.0448
     25 C          66.9945   92.1727   14.6388 C.ar    1  UNL1        0.0511
     26 O          62.3176   88.9818   12.6526 O.3     1  UNL1       -0.4712
     27 C          61.3752   89.5776   11.6492 C.3     1  UNL1        0.2211
     28 C          60.8955   88.7550   10.4902 C.3     1  UNL1        0.0995
     29 N          60.6266   89.4084    9.1671 N.3     1  UNL1       -0.3190
     30 H          60.3101   88.7057    8.4989 H       1  UNL1        0.1189
     31 H          61.4823   89.8439    8.8228 H       1  UNL1        0.1189
     32 C          60.6847   87.2789   10.6544 C.3     1  UNL1        0.0472
     33 C          61.6273   86.3098   10.0045 C.2     1  UNL1       -0.0005
     34 C          61.9221   86.2162    8.5367 C.2     1  UNL1        0.0942
     35 N          62.9176   85.1128    8.3333 N.2     1  UNL1       -0.2482
     36 C          63.2381   84.5244    9.6754 C.2     1  UNL1        0.0631
     37 C          64.1530   83.4106   10.0904 C.3     1  UNL1        0.0717
     38 C          64.2705   83.0366   11.5382 C.2     1  UNL1       -0.0198
     39 C          63.4731   83.7764   12.5711 C.2     1  UNL1       -0.0042
     40 C          62.5581   84.8903   12.1561 C.2     1  UNL1        0.0006
     41 C          62.4407   85.2642   10.7082 C.2     1  UNL1        0.0114
@<TRIPOS>BOND
     1    20    21    1
     2    21    22   ar
     3    22    23   ar
     4    23    24   ar
     5    24    25   ar
     6    25     1    1
     7     1     2   ar
     8     2     3   ar
     9     3     4    1
    10     3     5   ar
    11     5    26    1
    12    26    27    1
    13    27    28    1
    14    28    29    1
    15    28    32    1
    16    32    33    1
    17    33    34    2
    18    34    35    1
    19    35    36    2
    20    36    37    1
    21    37    38    1
    22    38    39    2
    23    39    40    1
    24    40    41    2
    25     5     6   ar
    26     6     7   ar
    27     7    10    1
    28    10    11    2
    29    11    12    1
    30    12    13    2
    31    13    14    1
    32    14    15    2
    33    15    16    1
    34    16    17    1
    35    16    18    2
    36    18    19    1
    37    25    21   ar
    38     7     1   ar
    39    19    10    1
    40    41    33    1
    41    18    13    1
    42    41    36    1
    43     4     8    1
    44     4     9    1
    45    29    30    1
    46    29    31    1
@<TRIPOS>MOLECULE
*****
 41 46 0 0 0
SMALL
GASTEIGER

@<TRIPOS>ATOM
      1 C          61.7401   86.9924    9.4050 C.ar    1  UNL1        0.0854
      2 N          61.3582   88.4386    9.2921 N.ar    1  UNL1       -0.2279
      3 C          61.5602   89.3608   10.4578 C.ar    1  UNL1        0.1596
      4 N          61.1784   90.8070   10.3449 N.pl3   1  UNL1       -0.3402
      5 C          62.1441   88.8369   11.7363 C.ar    1  UNL1        0.1695
      6 C          62.5260   87.3907   11.8492 C.ar    1  UNL1        0.0411
      7 C          62.3240   86.4685   10.6835 C.ar    1  UNL1        0.0209
      8 H          60.7951   91.1509    9.5058 H       1  UNL1        0.1438
      9 H          61.3109   91.4123   11.1099 H       1  UNL1        0.1438
     10 C          62.7058   85.0223   10.7964 C.2     1  UNL1        0.0308
     11 C          63.6207   84.4066    9.7795 C.2     1  UNL1        0.2321
     12 N          64.0025   82.9604    9.8924 N.2     1  UNL1       -0.0292
     13 C          63.4696   82.1299   11.0220 C.2     1  UNL1        0.3991
     14 N          63.6694   80.6896   11.3901 N.2     1  UNL1        0.0860
     15 N          62.8780   80.4150   12.6345 N.2     1  UNL1       -0.0384
     16 C          62.1892   81.6858   13.0354 C.2     1  UNL1        0.1096
     17 C          61.2922   81.8651   14.2242 C.3     1  UNL1        0.0561
     18 C          62.5548   82.7456   12.0389 C.2     1  UNL1        0.0901
     19 C          62.1729   84.1918   11.9260 C.3     1  UNL1        0.0658
     20 C          58.9226   86.4581    7.8477 C.3     1  UNL1        0.0725
     21 C          60.2430   85.8246    7.5235 C.ar    1  UNL1        0.1248
     22 O          60.5002   84.8343    6.4267 O.2     1  UNL1       -0.4546
     23 C          61.9543   84.4679    6.4646 C.ar    1  UNL1        0.1792
     24 C          62.5958   85.2317    7.5849 C.ar    1  UNL1        0.0448
     25 C          61.5381   86.0702    8.2394 C.ar    1  UNL1        0.0511
     26 O          62.3461   89.7591   12.9020 O.3     1  UNL1       -0.4712
     27 C          63.4623   90.7609   12.8810 C.3     1  UNL1        0.2211
     28 C          64.4721   90.7819   13.9900 C.3     1  UNL1        0.0995
     29 N          64.9223   92.0900   14.5697 N.3     1  UNL1       -0.3190
     30 H          65.6052   91.9179   15.3076 H       1  UNL1        0.1189
     31 H          64.1190   92.5841   14.9584 H       1  UNL1        0.1189
     32 C          65.0316   89.4947   14.5194 C.3     1  UNL1        0.0472
     33 C          64.1788   88.5991   15.3683 C.2     1  UNL1       -0.0005
     34 C          63.2301   89.0433   16.4419 C.2     1  UNL1        0.0942
     35 N          62.5900   87.8208   17.0297 N.2     1  UNL1       -0.2482
     36 C          63.1431   86.6209   16.3195 C.2     1  UNL1        0.0631
     37 C          62.8795   85.1525   16.4751 C.3     1  UNL1        0.0717
     38 C          63.5978   84.1651   15.6040 C.2     1  UNL1       -0.0198
     39 C          64.5798   84.6462   14.5771 C.2     1  UNL1       -0.0042
     40 C          64.8434   86.1146   14.4215 C.2     1  UNL1        0.0006
     41 C          64.1251   87.1019   15.2927 C.2     1  UNL1        0.0114
@<TRIPOS>BOND
     1    20    21    1
     2    21    22   ar
     3    22    23   ar
     4    23    24   ar
     5    24    25   ar
     6    25     1    1
     7     1     2   ar
     8     2     3   ar
     9     3     4    1
    10     3     5   ar
    11     5    26    1
    12    26    27    1
    13    27    28    1
    14    28    29    1
    15    28    32    1
    16    32    33    1
    17    33    34    2
    18    34    35    1
    19    35    36    2
    20    36    37    1
    21    37    38    1
    22    38    39    2
    23    39    40    1
    24    40    41    2
    25     5     6   ar
    26     6     7   ar
    27     7    10    1
    28    10    11    2
    29    11    12    1
    30    12    13    2
    31    13    14    1
    32    14    15    2
    33    15    16    1
    34    16    17    1
    35    16    18    2
    36    18    19    1
    37    25    21   ar
    38     7     1   ar
    39    19    10    1
    40    41    33    1
    41    18    13    1
    42    41    36    1
    43     4     8    1
    44     4     9    1
    45    29    30    1
    46    29    31    1
@<TRIPOS>MOLECULE
*****
 41 46 0 0 0
SMALL
GASTEIGER

@<TRIPOS>ATOM
      1 C          65.8215   91.3607   14.1022 C.ar    1  UNL1        0.0854
      2 N          65.2536   90.2584   14.9463 N.ar    1  UNL1       -0.2279
      3 C          64.0803   89.4646   14.4531 C.ar    1  UNL1        0.1596
      4 N          63.5124   88.3623   15.2972 N.pl3   1  UNL1       -0.3402
      5 C          63.4748   89.7732   13.1158 C.ar    1  UNL1        0.1695
      6 C          64.0427   90.8755   12.2717 C.ar    1  UNL1        0.0411
      7 C          65.2161   91.6692   12.7650 C.ar    1  UNL1        0.0209
      8 H          63.9097   88.1598   16.1749 H       1  UNL1        0.1438
      9 H          62.7422   87.8414   14.9735 H       1  UNL1        0.1438
     10 C          65.7840   92.7715   11.9210 C.2     1  UNL1        0.0308
     11 C          65.4414   94.2002   12.2234 C.2     1  UNL1        0.2321
     12 N          66.0094   95.3025   11.3794 N.2     1  UNL1       -0.0292
     13 C          66.9198   94.9761   10.2328 C.2     1  UNL1        0.3991
     14 N          67.6257   95.8436    9.2333 N.2     1  UNL1        0.0860
     15 N          68.4045   94.9512    8.3130 N.2     1  UNL1       -0.0384
     16 C          68.1799   93.5320    8.7439 C.2     1  UNL1        0.1096
     17 C          68.7694   92.3117    8.1010 C.3     1  UNL1        0.0561
     18 C          67.2623   93.5474    9.9304 C.2     1  UNL1        0.0901
     19 C          66.6944   92.4452   10.7744 C.3     1  UNL1        0.0658
     20 C          68.8182   91.3582   12.8103 C.3     1  UNL1        0.0725
     21 C          68.3723   92.1533   14.0016 C.ar    1  UNL1        0.1248
     22 O          69.2256   93.0868   14.8081 O.2     1  UNL1       -0.4546
     23 C          68.3754   93.6648   15.9004 C.ar    1  UNL1        0.1792
     24 C          66.9968   93.0886   15.7690 C.ar    1  UNL1        0.0448
     25 C          66.9949   92.1544   14.5954 C.ar    1  UNL1        0.0511
     26 O          62.3014   88.9795   12.6226 O.3     1  UNL1       -0.4712
     27 C          62.4614   88.0511   11.4554 C.3     1  UNL1        0.2211
     28 C          62.4348   86.5666   11.6687 C.3     1  UNL1        0.0995
     29 N          61.4171   85.7248   10.9576 N.3     1  UNL1       -0.3190
     30 H          61.5434   84.7466   11.2176 H       1  UNL1        0.1189
     31 H          61.5359   85.8268    9.9497 H       1  UNL1        0.1189
     32 C          63.4259   85.9238   12.5932 C.3     1  UNL1        0.0472
     33 C          63.0444   84.6957   13.3653 C.2     1  UNL1       -0.0005
     34 C          62.6623   84.6490   14.8151 C.2     1  UNL1        0.0942
     35 N          62.3597   83.2231   15.1690 N.2     1  UNL1       -0.2482
     36 C          62.5547   82.3886   13.9379 C.2     1  UNL1        0.0631
     37 C          62.4017   80.9175   13.6879 C.3     1  UNL1        0.0717
     38 C          62.6718   80.3566   12.3233 C.2     1  UNL1       -0.0198
     39 C          63.0949   81.2667   11.2085 C.2     1  UNL1       -0.0042
     40 C          63.2479   82.7378   11.4585 C.2     1  UNL1        0.0006
     41 C          62.9779   83.2987   12.8232 C.2     1  UNL1        0.0114
@<TRIPOS>BOND
     1    20    21    1
     2    21    22   ar
     3    22    23   ar
     4    23    24   ar
     5    24    25   ar
     6    25     1    1
     7     1     2   ar
     8     2     3   ar
     9     3     4    1
    10     3     5   ar
    11     5    26    1
    12    26    27    1
    13    27    28    1
    14    28    29    1
    15    28    32    1
    16    32    33    1
    17    33    34    2
    18    34    35    1
    19    35    36    2
    20    36    37    1
    21    37    38    1
    22    38    39    2
    23    39    40    1
    24    40    41    2
    25     5     6   ar
    26     6     7   ar
    27     7    10    1
    28    10    11    2
    29    11    12    1
    30    12    13    2
    31    13    14    1
    32    14    15    2
    33    15    16    1
    34    16    17    1
    35    16    18    2
    36    18    19    1
    37    25    21   ar
    38     7     1   ar
    39    19    10    1
    40    41    33    1
    41    18    13    1
    42    41    36    1
    43     4     8    1
    44     4     9    1
    45    29    30    1
    46    29    31    1
@<TRIPOS>MOLECULE
*****
 41 46 0 0 0
SMALL
GASTEIGER

@<TRIPOS>ATOM
      1 C          61.9429   86.9212    9.4680 C.ar    1  UNL1        0.0854
      2 N          61.6490   88.3892    9.3748 N.ar    1  UNL1       -0.2279
      3 C          61.9128   89.2829   10.5503 C.ar    1  UNL1        0.1596
      4 N          61.6190   90.7509   10.4572 N.pl3   1  UNL1       -0.3402
      5 C          62.4705   88.7086   11.8189 C.ar    1  UNL1        0.1695
      6 C          62.7643   87.2406   11.9121 C.ar    1  UNL1        0.0411
      7 C          62.5005   86.3469   10.7365 C.ar    1  UNL1        0.0209
      8 H          61.2530   91.1278    9.6246 H       1  UNL1        0.1438
      9 H          61.7921   91.3374   11.2287 H       1  UNL1        0.1438
     10 C          62.7943   84.8790   10.8296 C.2     1  UNL1        0.0308
     11 C          63.6333   84.2139    9.7790 C.2     1  UNL1        0.2321
     12 N          63.9272   82.7459    9.8721 N.2     1  UNL1       -0.0292
     13 C          63.3821   81.9429   11.0158 C.2     1  UNL1        0.3991
     14 N          63.5033   80.4906   11.3703 N.2     1  UNL1        0.0860
     15 N          62.7393   80.2578   12.6400 N.2     1  UNL1       -0.0384
     16 C          62.1459   81.5666   13.0702 C.2     1  UNL1        0.1096
     17 C          61.3031   81.7939   14.2901 C.3     1  UNL1        0.0561
     18 C          62.5431   82.6080   12.0664 C.2     1  UNL1        0.0901
     19 C          62.2493   84.0760   11.9733 C.3     1  UNL1        0.0658
     20 C          59.0674   86.5047    7.9823 C.3     1  UNL1        0.0725
     21 C          60.3574   85.8360    7.6096 C.ar    1  UNL1        0.1248
     22 O          60.5521   84.8585    6.4886 O.2     1  UNL1       -0.4546
     23 C          61.9942   84.4459    6.4788 C.ar    1  UNL1        0.1792
     24 C          62.6907   85.1683    7.5936 C.ar    1  UNL1        0.0448
     25 C          61.6791   86.0275    8.2925 C.ar    1  UNL1        0.0511
     26 O          62.7342   89.6023   12.9944 O.3     1  UNL1       -0.4712
     27 C          63.8637   89.2943   13.9321 C.3     1  UNL1        0.2211
     28 C          63.9363   89.9737   15.2674 C.3     1  UNL1        0.0995
     29 N          63.2997   89.3384   16.4678 N.3     1  UNL1       -0.3190
     30 H          63.4448   89.9326   17.2841 H       1  UNL1        0.1189
     31 H          63.7218   88.4247   16.6330 H       1  UNL1        0.1189
     32 C          64.6457   91.2886   15.4023 C.3     1  UNL1        0.0472
     33 C          65.8363   91.5903   14.5412 C.2     1  UNL1       -0.0005
     34 C          67.2700   91.5737   14.9819 C.2     1  UNL1        0.0942
     35 N          68.1219   91.9347   13.8013 N.2     1  UNL1       -0.2482
     36 C          67.2148   92.1744   12.6310 C.2     1  UNL1        0.0631
     37 C          67.4925   92.5590   11.2080 C.3     1  UNL1        0.0717
     38 C          66.3576   92.7308   10.2424 C.2     1  UNL1       -0.0198
     39 C          64.9450   92.5180   10.6997 C.2     1  UNL1       -0.0042
     40 C          64.6673   92.1334   12.1227 C.2     1  UNL1        0.0006
     41 C          65.8021   91.9616   13.0883 C.2     1  UNL1        0.0114
@<TRIPOS>BOND
     1    20    21    1
     2    21    22   ar
     3    22    23   ar
     4    23    24   ar
     5    24    25   ar
     6    25     1    1
     7     1     2   ar
     8     2     3   ar
     9     3     4    1
    10     3     5   ar
    11     5    26    1
    12    26    27    1
    13    27    28    1
    14    28    29    1
    15    28    32    1
    16    32    33    1
    17    33    34    2
    18    34    35    1
    19    35    36    2
    20    36    37    1
    21    37    38    1
    22    38    39    2
    23    39    40    1
    24    40    41    2
    25     5     6   ar
    26     6     7   ar
    27     7    10    1
    28    10    11    2
    29    11    12    1
    30    12    13    2
    31    13    14    1
    32    14    15    2
    33    15    16    1
    34    16    17    1
    35    16    18    2
    36    18    19    1
    37    25    21   ar
    38     7     1   ar
    39    19    10    1
    40    41    33    1
    41    18    13    1
    42    41    36    1
    43     4     8    1
    44     4     9    1
    45    29    30    1
    46    29    31    1
@<TRIPOS>MOLECULE
*****
 41 46 0 0 0
SMALL
GASTEIGER

@<TRIPOS>ATOM
      1 C          65.8129   91.1086   14.0776 C.ar    1  UNL1        0.0854
      2 N          65.2278   89.9764   14.8686 N.ar    1  UNL1       -0.2279
      3 C          64.0287   89.2397   14.3495 C.ar    1  UNL1        0.1596
      4 N          63.4437   88.1074   15.1404 N.pl3   1  UNL1       -0.3402
      5 C          63.4147   89.6353   13.0392 C.ar    1  UNL1        0.1695
      6 C          63.9998   90.7675   12.2482 C.ar    1  UNL1        0.0411
      7 C          65.1989   91.5042   12.7675 C.ar    1  UNL1        0.0209
      8 H          63.8466   87.8478   16.0003 H       1  UNL1        0.1438
      9 H          62.6567   87.6239   14.7997 H       1  UNL1        0.1438
     10 C          65.7840   92.6364   11.9765 C.2     1  UNL1        0.0308
     11 C          65.4480   94.0538   12.3345 C.2     1  UNL1        0.2321
     12 N          66.0330   95.1861   11.5436 N.2     1  UNL1       -0.0292
     13 C          66.9541   94.9010   10.3945 C.2     1  UNL1        0.3991
     14 N          67.6773   95.8041    9.4399 N.2     1  UNL1        0.0860
     15 N          68.4603   94.9451    8.4918 N.2     1  UNL1       -0.0384
     16 C          68.2210   93.5109    8.8606 C.2     1  UNL1        0.1096
     17 C          68.8093   92.3141    8.1739 C.3     1  UNL1        0.0561
     18 C          67.2901   93.4837   10.0365 C.2     1  UNL1        0.0901
     19 C          66.7051   92.3514   10.8275 C.3     1  UNL1        0.0658
     20 C          65.9487   92.8508   16.8337 C.3     1  UNL1        0.0725
     21 C          67.0744   92.6461   15.8636 C.ar    1  UNL1        0.1248
     22 O          68.4601   93.2062   15.9901 O.2     1  UNL1       -0.4546
     23 C          69.2541   92.7516   14.8014 C.ar    1  UNL1        0.1792
     24 C          68.3591   91.9105   13.9403 C.ar    1  UNL1        0.0448
     25 C          67.0120   91.8453   14.5968 C.ar    1  UNL1        0.0511
     26 O          62.2156   88.8986   12.5201 O.3     1  UNL1       -0.4712
     27 C          61.0640   89.6597   11.9332 C.3     1  UNL1        0.2211
     28 C          60.4850   89.2439   10.6134 C.3     1  UNL1        0.0995
     29 N          60.6145   90.1440    9.4205 N.3     1  UNL1       -0.3190
     30 H          60.1672   89.7070    8.6147 H       1  UNL1        0.1189
     31 H          61.6019   90.3004    9.2181 H       1  UNL1        0.1189
     32 C          59.7765   87.9277   10.4865 C.3     1  UNL1        0.0472
     33 C          59.8256   87.1713    9.1921 C.2     1  UNL1       -0.0005
     34 C          58.7370   87.1154    8.1617 C.2     1  UNL1        0.0942
     35 N          59.2106   86.2475    7.0337 N.2     1  UNL1       -0.2482
     36 C          60.5919   85.7670    7.3669 C.2     1  UNL1        0.0631
     37 C          61.5527   84.8834    6.6280 C.3     1  UNL1        0.0717
     38 C          62.8936   84.5708    7.2230 C.2     1  UNL1       -0.0198
     39 C          63.2738   85.1417    8.5570 C.2     1  UNL1       -0.0042
     40 C          62.3130   86.0253    9.2959 C.2     1  UNL1        0.0006
     41 C          60.9721   86.3380    8.7009 C.2     1  UNL1        0.0114
@<TRIPOS>BOND
     1    20    21    1
     2    21    22   ar
     3    22    23   ar
     4    23    24   ar
     5    24    25   ar
     6    25     1    1
     7     1     2   ar
     8     2     3   ar
     9     3     4    1
    10     3     5   ar
    11     5    26    1
    12    26    27    1
    13    27    28    1
    14    28    29    1
    15    28    32    1
    16    32    33    1
    17    33    34    2
    18    34    35    1
    19    35    36    2
    20    36    37    1
    21    37    38    1
    22    38    39    2
    23    39    40    1
    24    40    41    2
    25     5     6   ar
    26     6     7   ar
    27     7    10    1
    28    10    11    2
    29    11    12    1
    30    12    13    2
    31    13    14    1
    32    14    15    2
    33    15    16    1
    34    16    17    1
    35    16    18    2
    36    18    19    1
    37    25    21   ar
    38     7     1   ar
    39    19    10    1
    40    41    33    1
    41    18    13    1
    42    41    36    1
    43     4     8    1
    44     4     9    1
    45    29    30    1
    46    29    31    1
@<TRIPOS>MOLECULE
*****
 41 46 0 0 0
SMALL
GASTEIGER

@<TRIPOS>ATOM
      1 C          61.9374   87.1107    9.5192 C.ar    1  UNL1        0.0854
      2 N          61.6652   88.5819    9.4126 N.ar    1  UNL1       -0.2279
      3 C          62.0311   89.4963   10.5440 C.ar    1  UNL1        0.1596
      4 N          61.7589   90.9675   10.4373 N.pl3   1  UNL1       -0.3402
      5 C          62.6692   88.9394   11.7821 C.ar    1  UNL1        0.1695
      6 C          62.9414   87.4681   11.8887 C.ar    1  UNL1        0.0411
      7 C          62.5754   86.5538   10.7572 C.ar    1  UNL1        0.0209
      8 H          61.3402   91.3331    9.6248 H       1  UNL1        0.1438
      9 H          61.9991   91.5677   11.1799 H       1  UNL1        0.1438
     10 C          62.8476   85.0826   10.8639 C.2     1  UNL1        0.0308
     11 C          63.6172   84.3820    9.7836 C.2     1  UNL1        0.2321
     12 N          63.8893   82.9108    9.8903 N.2     1  UNL1       -0.0292
     13 C          63.3919   82.1401   11.0771 C.2     1  UNL1        0.3991
     14 N          63.5060   80.6926   11.4535 N.2     1  UNL1        0.0860
     15 N          62.8070   80.4985   12.7664 N.2     1  UNL1       -0.0384
     16 C          62.2608   81.8261   13.2014 C.2     1  UNL1        0.1096
     17 C          61.4887   82.0924   14.4595 C.3     1  UNL1        0.0561
     18 C          62.6223   82.8407   12.1573 C.2     1  UNL1        0.0901
     19 C          62.3502   84.3119   12.0507 C.3     1  UNL1        0.0658
     20 C          58.9549   86.7257    8.2519 C.3     1  UNL1        0.0725
     21 C          60.2005   86.0194    7.8053 C.ar    1  UNL1        0.1248
     22 O          60.2940   85.0121    6.6978 O.2     1  UNL1       -0.4546
     23 C          61.7227   84.5666    6.5958 C.ar    1  UNL1        0.1792
     24 C          62.5122   85.2985    7.6403 C.ar    1  UNL1        0.0448
     25 C          61.5715   86.1963    8.3878 C.ar    1  UNL1        0.0511
     26 O          63.0351   89.8537   12.9135 O.3     1  UNL1       -0.4712
     27 C          63.9968   90.9819   12.6849 C.3     1  UNL1        0.2211
     28 C          64.9965   91.3413   13.7439 C.3     1  UNL1        0.0995
     29 N          64.6195   91.2507   15.1929 N.3     1  UNL1       -0.3190
     30 H          65.4136   91.5298   15.7690 H       1  UNL1        0.1189
     31 H          64.3578   90.2906   15.4168 H       1  UNL1        0.1189
     32 C          66.3733   91.7913   13.3539 C.3     1  UNL1        0.0472
     33 C          66.5466   92.9585   12.4278 C.2     1  UNL1       -0.0005
     34 C          66.0817   94.3619   12.6816 C.2     1  UNL1        0.0942
     35 N          66.4630   95.1980   11.4960 N.2     1  UNL1       -0.2482
     36 C          67.1636   94.3113   10.5095 C.2     1  UNL1        0.0631
     37 C          67.7611   94.5854    9.1613 C.3     1  UNL1        0.0717
     38 C          68.4103   93.4755    8.3890 C.2     1  UNL1       -0.0198
     39 C          68.4620   92.0914    8.9649 C.2     1  UNL1       -0.0042
     40 C          67.8644   91.8173   10.3132 C.2     1  UNL1        0.0006
     41 C          67.2152   92.9273   11.0855 C.2     1  UNL1        0.0114
@<TRIPOS>BOND
     1    20    21    1
     2    21    22   ar
     3    22    23   ar
     4    23    24   ar
     5    24    25   ar
     6    25     1    1
     7     1     2   ar
     8     2     3   ar
     9     3     4    1
    10     3     5   ar
    11     5    26    1
    12    26    27    1
    13    27    28    1
    14    28    29    1
    15    28    32    1
    16    32    33    1
    17    33    34    2
    18    34    35    1
    19    35    36    2
    20    36    37    1
    21    37    38    1
    22    38    39    2
    23    39    40    1
    24    40    41    2
    25     5     6   ar
    26     6     7   ar
    27     7    10    1
    28    10    11    2
    29    11    12    1
    30    12    13    2
    31    13    14    1
    32    14    15    2
    33    15    16    1
    34    16    17    1
    35    16    18    2
    36    18    19    1
    37    25    21   ar
    38     7     1   ar
    39    19    10    1
    40    41    33    1
    41    18    13    1
    42    41    36    1
    43     4     8    1
    44     4     9    1
    45    29    30    1
    46    29    31    1
@<TRIPOS>MOLECULE
*****
 41 46 0 0 0
SMALL
GASTEIGER

@<TRIPOS>ATOM
      1 C          63.4825   90.8285   12.5113 C.ar    1  UNL1        0.0854
      2 N          62.2592   90.0715   12.9360 N.ar    1  UNL1       -0.2279
      3 C          61.1603   89.8079   11.9496 C.ar    1  UNL1        0.1596
      4 N          59.9369   89.0508   12.3743 N.pl3   1  UNL1       -0.3402
      5 C          61.2847   90.3013   10.5385 C.ar    1  UNL1        0.1695
      6 C          62.5081   91.0583   10.1138 C.ar    1  UNL1        0.0411
      7 C          63.6069   91.3219   11.1003 C.ar    1  UNL1        0.0209
      8 H          59.8552   88.7270   13.3004 H       1  UNL1        0.1438
      9 H          59.2157   88.8778   11.7269 H       1  UNL1        0.1438
     10 C          64.8303   92.0789   10.6756 C.2     1  UNL1        0.0308
     11 C          66.1300   91.3557   10.4814 C.2     1  UNL1        0.2321
     12 N          67.3533   92.1128   10.0567 N.2     1  UNL1       -0.0292
     13 C          67.2771   93.5930    9.8263 C.2     1  UNL1        0.3991
     14 N          68.3084   94.5979    9.4066 N.2     1  UNL1        0.0860
     15 N          67.6463   95.9423    9.3414 N.2     1  UNL1       -0.0384
     16 C          66.2055   95.7681    9.7209 C.2     1  UNL1        0.1096
     17 C          65.1741   96.8551    9.7888 C.3     1  UNL1        0.0561
     18 C          65.9773   94.3162   10.0206 C.2     1  UNL1        0.0901
     19 C          64.7540   93.5591   10.4452 C.3     1  UNL1        0.0658
     20 C          64.6186   88.7185   14.7264 C.3     1  UNL1        0.0725
     21 C          65.1036   90.1223   14.5159 C.ar    1  UNL1        0.1248
     22 O          66.1959   90.8026   15.2866 O.2     1  UNL1       -0.4546
     23 C          66.3488   92.1929   14.7447 C.ar    1  UNL1        0.1792
     24 C          65.3509   92.3719   13.6391 C.ar    1  UNL1        0.0448
     25 C          64.5814   91.0922   13.4977 C.ar    1  UNL1        0.0511
     26 O          60.1859   90.0377    9.5521 O.3     1  UNL1       -0.4712
     27 C          60.3298   88.9342    8.5463 C.3     1  UNL1        0.2211
     28 C          59.8810   87.5444    8.8884 C.3     1  UNL1        0.0995
     29 N          58.7268   86.9273    8.1557 N.3     1  UNL1       -0.3190
     30 H          58.5602   85.9870    8.5141 H       1  UNL1        0.1189
     31 H          58.9432   86.8783    7.1601 H       1  UNL1        0.1189
     32 C          60.5865   86.7717    9.9633 C.3     1  UNL1        0.0472
     33 C          61.6968   85.8294    9.6039 C.2     1  UNL1       -0.0005
     34 C          62.2120   85.5605    8.2211 C.2     1  UNL1        0.0942
     35 N          63.3205   84.5555    8.3268 N.2     1  UNL1       -0.2482
     36 C          63.4903   84.2032    9.7749 C.2     1  UNL1        0.0631
     37 C          64.4291   83.2672   10.4767 C.3     1  UNL1        0.0717
     38 C          64.3643   83.1186   11.9679 C.2     1  UNL1       -0.0198
     39 C          63.3608   83.9060   12.7572 C.2     1  UNL1       -0.0042
     40 C          62.4221   84.8419   12.0554 C.2     1  UNL1        0.0006
     41 C          62.4868   84.9905   10.5642 C.2     1  UNL1        0.0114
@<TRIPOS>BOND
     1    20    21    1
     2    21    22   ar
     3    22    23   ar
     4    23    24   ar
     5    24    25   ar
     6    25     1    1
     7     1     2   ar
     8     2     3   ar
     9     3     4    1
    10     3     5   ar
    11     5    26    1
    12    26    27    1
    13    27    28    1
    14    28    29    1
    15    28    32    1
    16    32    33    1
    17    33    34    2
    18    34    35    1
    19    35    36    2
    20    36    37    1
    21    37    38    1
    22    38    39    2
    23    39    40    1
    24    40    41    2
    25     5     6   ar
    26     6     7   ar
    27     7    10    1
    28    10    11    2
    29    11    12    1
    30    12    13    2
    31    13    14    1
    32    14    15    2
    33    15    16    1
    34    16    17    1
    35    16    18    2
    36    18    19    1
    37    25    21   ar
    38     7     1   ar
    39    19    10    1
    40    41    33    1
    41    18    13    1
    42    41    36    1
    43     4     8    1
    44     4     9    1
    45    29    30    1
    46    29    31    1
@<TRIPOS>MOLECULE
*****
 41 46 0 0 0
SMALL
GASTEIGER

@<TRIPOS>ATOM
      1 C          63.1365   86.8969   12.6722 C.ar    1  UNL1        0.0854
      2 N          63.9721   87.4057   13.8092 N.ar    1  UNL1       -0.2279
      3 C          64.1618   88.8815   13.9988 C.ar    1  UNL1        0.1596
      4 N          64.9975   89.3903   15.1358 N.pl3   1  UNL1       -0.3402
      5 C          63.5159   89.8486   13.0513 C.ar    1  UNL1        0.1695
      6 C          62.6803   89.3398   11.9143 C.ar    1  UNL1        0.0411
      7 C          62.4906   87.8639   11.7248 C.ar    1  UNL1        0.0209
      8 H          65.4214   88.7556   15.7577 H       1  UNL1        0.1438
      9 H          65.1220   90.3589   15.2603 H       1  UNL1        0.1438
     10 C          61.6550   87.3551   10.5877 C.2     1  UNL1        0.0308
     11 C          60.1952   87.6933   10.5198 C.2     1  UNL1        0.2321
     12 N          59.3596   87.1845    9.3827 N.2     1  UNL1       -0.0292
     13 C          59.9837   86.3375    8.3137 C.2     1  UNL1        0.3991
     14 N          59.4165   85.6975    7.0813 N.2     1  UNL1        0.0860
     15 N          60.5257   84.9637    6.3876 N.2     1  UNL1       -0.0384
     16 C          61.7784   85.1502    7.1912 C.2     1  UNL1        0.1096
     17 C          63.1290   84.5866    6.8622 C.3     1  UNL1        0.0561
     18 C          61.4435   85.9992    8.3816 C.2     1  UNL1        0.0901
     19 C          62.2791   86.5080    9.5186 C.3     1  UNL1        0.0658
     20 C          62.2195   84.7699   14.9710 C.3     1  UNL1        0.0725
     21 C          62.5253   84.4434   13.5393 C.ar    1  UNL1        0.1248
     22 O          62.4633   83.0819   12.9128 O.2     1  UNL1       -0.4546
     23 C          62.8465   83.2181   11.4690 C.ar    1  UNL1        0.1792
     24 C          63.1453   84.6638   11.2031 C.ar    1  UNL1        0.0448
     25 C          62.9468   85.4210   12.4826 C.ar    1  UNL1        0.0511
     26 O          63.7056   91.3244   13.2409 O.3     1  UNL1       -0.4712
     27 C          64.7179   92.0624   12.4161 C.3     1  UNL1        0.2211
     28 C          65.9867   92.5528   13.0483 C.3     1  UNL1        0.0995
     29 N          65.9391   93.2789   14.3600 N.3     1  UNL1       -0.3190
     30 H          66.8852   93.5378   14.6399 H       1  UNL1        0.1189
     31 H          65.5286   92.6722   15.0698 H       1  UNL1        0.1189
     32 C          67.3031   92.3172   12.3689 C.3     1  UNL1        0.0472
     33 C          67.5193   92.7989   10.9649 C.2     1  UNL1       -0.0005
     34 C          68.1786   92.0280    9.8599 C.2     1  UNL1        0.0942
     35 N          68.1809   92.8889    8.6315 N.2     1  UNL1       -0.2482
     36 C          67.5231   94.1919    8.9774 C.2     1  UNL1        0.0631
     37 C          67.2437   95.4217    8.1654 C.3     1  UNL1        0.0717
     38 C          66.5553   96.5960    8.7956 C.2     1  UNL1       -0.0198
     39 C          66.1465   96.5404   10.2378 C.2     1  UNL1       -0.0042
     40 C          66.4259   95.3106   11.0497 C.2     1  UNL1        0.0006
     41 C          67.1143   94.1363   10.4195 C.2     1  UNL1        0.0114
@<TRIPOS>BOND
     1    20    21    1
     2    21    22   ar
     3    22    23   ar
     4    23    24   ar
     5    24    25   ar
     6    25     1    1
     7     1     2   ar
     8     2     3   ar
     9     3     4    1
    10     3     5   ar
    11     5    26    1
    12    26    27    1
    13    27    28    1
    14    28    29    1
    15    28    32    1
    16    32    33    1
    17    33    34    2
    18    34    35    1
    19    35    36    2
    20    36    37    1
    21    37    38    1
    22    38    39    2
    23    39    40    1
    24    40    41    2
    25     5     6   ar
    26     6     7   ar
    27     7    10    1
    28    10    11    2
    29    11    12    1
    30    12    13    2
    31    13    14    1
    32    14    15    2
    33    15    16    1
    34    16    17    1
    35    16    18    2
    36    18    19    1
    37    25    21   ar
    38     7     1   ar
    39    19    10    1
    40    41    33    1
    41    18    13    1
    42    41    36    1
    43     4     8    1
    44     4     9    1
    45    29    30    1
    46    29    31    1
@<TRIPOS>MOLECULE
*****
 41 46 0 0 0
SMALL
GASTEIGER

@<TRIPOS>ATOM
      1 C          63.3275   83.5649   13.1615 C.ar    1  UNL1        0.0854
      2 N          63.6635   83.5410   14.6232 N.ar    1  UNL1       -0.2279
      3 C          63.8885   84.8268   15.3622 C.ar    1  UNL1        0.1596
      4 N          64.2245   84.8029   16.8239 N.pl3   1  UNL1       -0.3402
      5 C          63.7775   86.1366   14.6395 C.ar    1  UNL1        0.1695
      6 C          63.4415   86.1605   13.1778 C.ar    1  UNL1        0.0411
      7 C          63.2165   84.8746   12.4388 C.ar    1  UNL1        0.0209
      8 H          64.2973   83.9432   17.2982 H       1  UNL1        0.1438
      9 H          64.3722   85.6468   17.3089 H       1  UNL1        0.1438
     10 C          62.8805   84.8985   10.9772 C.2     1  UNL1        0.0308
     11 C          63.7725   84.2041    9.9911 C.2     1  UNL1        0.2321
     12 N          63.4365   84.2280    8.5294 N.2     1  UNL1       -0.0292
     13 C          62.2086   84.9463    8.0537 C.2     1  UNL1        0.3991
     14 N          61.6255   85.1393    6.6853 N.2     1  UNL1        0.0860
     15 N          60.3732   85.9530    6.8254 N.2     1  UNL1       -0.0384
     16 C          60.1824   86.2629    8.2807 C.2     1  UNL1        0.1096
     17 C          59.0551   87.0557    8.8728 C.3     1  UNL1        0.0561
     18 C          61.3167   85.6407    9.0398 C.2     1  UNL1        0.0901
     19 C          61.6527   85.6168   10.5014 C.3     1  UNL1        0.0658
     20 C          61.3585   81.1356   14.0947 C.3     1  UNL1        0.0725
     21 C          62.1974   81.1624   12.8515 C.ar    1  UNL1        0.1248
     22 O          62.2786   80.0774   11.8190 O.2     1  UNL1       -0.4546
     23 C          63.2338   80.5235   10.7519 C.ar    1  UNL1        0.1792
     24 C          63.7430   81.8842   11.1249 C.ar    1  UNL1        0.0448
     25 C          63.1025   82.2791   12.4226 C.ar    1  UNL1        0.0511
     26 O          64.0025   87.4224   15.3784 O.3     1  UNL1       -0.4712
     27 C          64.4549   88.6447   14.6360 C.3     1  UNL1        0.2211
     28 C          63.7474   89.9514   14.8412 C.3     1  UNL1        0.0995
     29 N          62.2762   90.0585   14.5692 N.3     1  UNL1       -0.3190
     30 H          61.9636   91.0105   14.7601 H       1  UNL1        0.1189
     31 H          61.7710   89.4077   15.1705 H       1  UNL1        0.1189
     32 C          64.5113   91.1510   15.3185 C.3     1  UNL1        0.0472
     33 C          65.6775   91.6617   14.5254 C.2     1  UNL1       -0.0005
     34 C          67.0530   91.9360   15.0573 C.2     1  UNL1        0.0942
     35 N          67.8986   92.4317   13.9218 N.2     1  UNL1       -0.2482
     36 C          67.0458   92.4637   12.6883 C.2     1  UNL1        0.0631
     37 C          67.3418   92.8647   11.2735 C.3     1  UNL1        0.0717
     38 C          66.2651   92.7899   10.2319 C.2     1  UNL1       -0.0198
     39 C          64.8924   92.3140   10.6049 C.2     1  UNL1       -0.0042
     40 C          64.5964   91.9130   12.0197 C.2     1  UNL1        0.0006
     41 C          65.6731   91.9879   13.0613 C.2     1  UNL1        0.0114
@<TRIPOS>BOND
     1    20    21    1
     2    21    22   ar
     3    22    23   ar
     4    23    24   ar
     5    24    25   ar
     6    25     1    1
     7     1     2   ar
     8     2     3   ar
     9     3     4    1
    10     3     5   ar
    11     5    26    1
    12    26    27    1
    13    27    28    1
    14    28    29    1
    15    28    32    1
    16    32    33    1
    17    33    34    2
    18    34    35    1
    19    35    36    2
    20    36    37    1
    21    37    38    1
    22    38    39    2
    23    39    40    1
    24    40    41    2
    25     5     6   ar
    26     6     7   ar
    27     7    10    1
    28    10    11    2
    29    11    12    1
    30    12    13    2
    31    13    14    1
    32    14    15    2
    33    15    16    1
    34    16    17    1
    35    16    18    2
    36    18    19    1
    37    25    21   ar
    38     7     1   ar
    39    19    10    1
    40    41    33    1
    41    18    13    1
    42    41    36    1
    43     4     8    1
    44     4     9    1
    45    29    30    1
    46    29    31    1
