@<TRIPOS>MOLECULE
*****
 40 45 0 0 0
SMALL
GASTEIGER

@<TRIPOS>ATOM
      1 N          65.3567   92.3572   12.2276 N.3     1  UNL1       -0.2641
      2 C          66.3624   92.6861   11.1644 C.3     1  UNL1        0.0981
      3 C          67.3247   91.6370   10.6920 C.3     1  UNL1        0.0224
      4 C          68.3304   91.9659    9.6288 C.3     1  UNL1        0.0065
      5 C          68.3738   93.3439    9.0381 C.3     1  UNL1        0.0277
      6 C          67.4115   94.3931    9.5105 C.ar    1  UNL1       -0.0073
      7 C          67.4548   95.7712    8.9197 C.ar    1  UNL1       -0.0015
      8 C          66.4925   96.8204    9.3922 C.ar    1  UNL1        0.0203
      9 C          65.4868   96.4914   10.4554 C.ar    1  UNL1        0.0985
     10 N          65.4434   95.1134   11.0461 N.ar    1  UNL1       -0.2471
     11 C          66.4058   94.0642   10.5737 C.ar    1  UNL1        0.0695
     12 C          63.9023   92.2495   11.8767 C.3     1  UNL1        0.0994
     13 C          62.2289   88.3451   10.3917 C.ar    1  UNL1       -0.0064
     14 C          62.2803   89.5346    9.4792 C.ar    1  UNL1       -0.0032
     15 C          62.8381   90.8360    9.9742 C.ar    1  UNL1       -0.0032
     16 C          63.3445   90.9481   11.3817 C.ar    1  UNL1       -0.0062
     17 C          63.2932   89.7586   12.2941 C.ar    1  UNL1       -0.0032
     18 C          62.7354   88.4571   11.7991 C.ar    1  UNL1       -0.0032
     19 C          61.6712   87.0436    9.8967 C.3     1  UNL1        0.0959
     20 N          61.5727   85.8687   10.8241 N.3     1  UNL1       -0.2887
     21 H          61.4739   86.2452   11.7669 H       1  UNL1        0.1239
     22 C          62.6804   84.8586   10.8751 C.3     1  UNL1        0.1154
     23 C          62.6167   81.6044   13.9826 C.ar    1  UNL1        0.0207
     24 C          62.7518   81.2525   12.5307 C.ar    1  UNL1        0.0028
     25 C          62.7731   82.3372   11.4949 C.ar    1  UNL1        0.0161
     26 C          62.6591   83.7739   11.9109 C.ar    1  UNL1        0.0750
     27 N          62.5240   84.1258   13.3627 N.ar    1  UNL1       -0.2468
     28 C          62.5028   83.0411   14.3986 C.ar    1  UNL1        0.0985
     29 C          65.8053   92.1359   13.6417 C.3     1  UNL1        0.0888
     30 C          65.0672   91.1697   14.5203 C.3     1  UNL1        0.0748
     31 C          65.1890   89.6941   14.2804 C.3     1  UNL1        0.0432
     32 C          64.4509   88.7280   15.1590 C.ar    1  UNL1       -0.0234
     33 C          64.5726   87.2523   14.9191 C.ar    1  UNL1       -0.0045
     34 C          63.8346   86.2863   15.7977 C.ar    1  UNL1       -0.0003
     35 C          62.9747   86.7959   16.9161 C.ar    1  UNL1       -0.0003
     36 C          62.8529   88.2715   17.1560 C.ar    1  UNL1       -0.0032
     37 C          63.5910   89.2375   16.2774 C.ar    1  UNL1       -0.0103
     38 C          63.4693   90.7133   16.5173 C.3     1  UNL1        0.0953
     39 N          64.2074   91.6793   15.6388 N.3     1  UNL1       -0.2934
     40 H          64.8127   92.2287   16.2487 H       1  UNL1        0.1236
@<TRIPOS>BOND
     1    23    24   ar
     2    24    25   ar
     3    25    26   ar
     4    26    22    1
     5    22    20    1
     6    20    19    1
     7    19    13    1
     8    13    14   ar
     9    14    15   ar
    10    15    16   ar
    11    16    12    1
    12    12     1    1
    13     1    29    1
    14    30    29    1
    15    30    31    1
    16    31    32    1
    17    32    33   ar
    18    33    34   ar
    19    34    35   ar
    20    35    36   ar
    21    36    37   ar
    22    37    38    1
    23    38    39    1
    24     2     1    1
    25     2     3    1
    26     3     4    1
    27     4     5    1
    28     5     6    1
    29     6     7   ar
    30     7     8   ar
    31     8     9   ar
    32     9    10   ar
    33    10    11   ar
    34    16    17   ar
    35    17    18   ar
    36    26    27   ar
    37    27    28   ar
    38    28    23   ar
    39    18    13   ar
    40    39    30    1
    41    11     2    1
    42    37    32   ar
    43    11     6   ar
    44    20    21    1
    45    39    40    1
@<TRIPOS>MOLECULE
*****
 40 45 0 0 0
SMALL
GASTEIGER

@<TRIPOS>ATOM
      1 N          63.5228   91.1065   13.3380 N.3     1  UNL1       -0.2641
      2 C          64.7414   91.6029   12.6179 C.3     1  UNL1        0.0981
      3 C          64.6801   91.8841   11.1458 C.3     1  UNL1        0.0224
      4 C          65.8987   92.3805   10.4256 C.3     1  UNL1        0.0065
      5 C          67.1786   92.5958   11.1776 C.3     1  UNL1        0.0277
      6 C          67.2399   92.3146   12.6497 C.ar    1  UNL1       -0.0073
      7 C          68.5198   92.5298   13.4018 C.ar    1  UNL1       -0.0015
      8 C          68.5811   92.2487   14.8739 C.ar    1  UNL1        0.0203
      9 C          67.3625   91.7522   15.5940 C.ar    1  UNL1        0.0985
     10 N          66.0826   91.5370   14.8420 N.ar    1  UNL1       -0.2471
     11 C          66.0213   91.8182   13.3698 C.ar    1  UNL1        0.0695
     12 C          63.6017   90.7608   14.7954 C.3     1  UNL1        0.0994
     13 C          63.7516   86.4508   16.0806 C.ar    1  UNL1       -0.0064
     14 C          63.0296   87.4600   16.9234 C.ar    1  UNL1       -0.0032
     15 C          62.9797   88.8967   16.4950 C.ar    1  UNL1       -0.0032
     16 C          63.6517   89.3241   15.2238 C.ar    1  UNL1       -0.0062
     17 C          64.3736   88.3149   14.3811 C.ar    1  UNL1       -0.0032
     18 C          64.4235   86.8782   14.8095 C.ar    1  UNL1       -0.0032
     19 C          63.8015   85.0141   16.5090 C.3     1  UNL1        0.0959
     20 N          64.2634   83.9602   15.5466 N.3     1  UNL1       -0.2887
     21 H          64.7978   84.4379   14.8209 H       1  UNL1        0.1239
     22 C          63.2600   83.0931   14.8456 C.3     1  UNL1        0.1154
     23 C          63.7599   82.1577   10.4724 C.ar    1  UNL1        0.0207
     24 C          64.3402   83.4188   11.0408 C.ar    1  UNL1        0.0028
     25 C          64.1735   83.7306   12.4985 C.ar    1  UNL1        0.0161
     26 C          63.4266   82.7813   13.3879 C.ar    1  UNL1        0.0750
     27 N          62.8463   81.5203   12.8196 N.ar    1  UNL1       -0.2468
     28 C          63.0130   81.2084   11.3618 C.ar    1  UNL1        0.0985
     29 C          62.2253   90.9558   12.6007 C.3     1  UNL1        0.0888
     30 C          61.9881   89.7516   11.7383 C.3     1  UNL1        0.0748
     31 C          61.0493   89.8378   10.5716 C.3     1  UNL1        0.0432
     32 C          60.8121   88.6335    9.7092 C.ar    1  UNL1       -0.0234
     33 C          59.8734   88.7197    8.5425 C.ar    1  UNL1       -0.0045
     34 C          59.6363   87.5155    7.6802 C.ar    1  UNL1       -0.0003
     35 C          60.3378   86.2251    7.9847 C.ar    1  UNL1       -0.0003
     36 C          61.2766   86.1389    9.1514 C.ar    1  UNL1       -0.0032
     37 C          61.5137   87.3431   10.0137 C.ar    1  UNL1       -0.0103
     38 C          62.4525   87.2570   11.1805 C.3     1  UNL1        0.0953
     39 N          62.6896   88.4612   12.0428 N.3     1  UNL1       -0.2934
     40 H          63.6905   88.6551   12.0090 H       1  UNL1        0.1236
@<TRIPOS>BOND
     1    23    24   ar
     2    24    25   ar
     3    25    26   ar
     4    26    22    1
     5    22    20    1
     6    20    19    1
     7    19    13    1
     8    13    14   ar
     9    14    15   ar
    10    15    16   ar
    11    16    12    1
    12    12     1    1
    13     1    29    1
    14    30    29    1
    15    30    31    1
    16    31    32    1
    17    32    33   ar
    18    33    34   ar
    19    34    35   ar
    20    35    36   ar
    21    36    37   ar
    22    37    38    1
    23    38    39    1
    24     2     1    1
    25     2     3    1
    26     3     4    1
    27     4     5    1
    28     5     6    1
    29     6     7   ar
    30     7     8   ar
    31     8     9   ar
    32     9    10   ar
    33    10    11   ar
    34    16    17   ar
    35    17    18   ar
    36    26    27   ar
    37    27    28   ar
    38    28    23   ar
    39    18    13   ar
    40    39    30    1
    41    11     2    1
    42    37    32   ar
    43    11     6   ar
    44    20    21    1
    45    39    40    1
@<TRIPOS>MOLECULE
*****
 40 45 0 0 0
SMALL
GASTEIGER

@<TRIPOS>ATOM
      1 N          63.7525   89.8975   13.6571 N.3     1  UNL1       -0.2641
      2 C          64.4596   91.0615   13.0285 C.3     1  UNL1        0.0981
      3 C          64.2332   91.3840   11.5813 C.3     1  UNL1        0.0224
      4 C          64.9403   92.5481   10.9527 C.3     1  UNL1        0.0065
      5 C          65.8738   93.3896   11.7715 C.3     1  UNL1        0.0277
      6 C          66.1002   93.0671   13.2188 C.ar    1  UNL1       -0.0073
      7 C          67.0337   93.9086   14.0376 C.ar    1  UNL1       -0.0015
      8 C          67.2601   93.5861   15.4849 C.ar    1  UNL1        0.0203
      9 C          66.5531   92.4220   16.1134 C.ar    1  UNL1        0.0985
     10 N          65.6196   91.5805   15.2946 N.ar    1  UNL1       -0.2471
     11 C          65.3931   91.9030   13.8473 C.ar    1  UNL1        0.0695
     12 C          62.2694   89.7439   13.4941 C.3     1  UNL1        0.0994
     13 C          60.4893   89.3224    9.3827 C.ar    1  UNL1       -0.0064
     14 C          61.8323   88.7257    9.6832 C.ar    1  UNL1       -0.0032
     15 C          62.4257   88.8662   11.0537 C.ar    1  UNL1       -0.0032
     16 C          61.6760   89.6034   12.1236 C.ar    1  UNL1       -0.0062
     17 C          60.3330   90.2000   11.8230 C.ar    1  UNL1       -0.0032
     18 C          59.7397   90.0595   10.4525 C.ar    1  UNL1       -0.0032
     19 C          59.8959   89.1819    8.0122 C.3     1  UNL1        0.0959
     20 N          58.8726   88.1185    7.7434 N.3     1  UNL1       -0.2887
     21 H          58.0008   88.4348    8.1680 H       1  UNL1        0.1239
     22 C          59.1042   86.7164    8.2232 C.3     1  UNL1        0.1154
     23 C          62.8724   84.5397    7.0775 C.ar    1  UNL1        0.0207
     24 C          62.8077   85.2978    8.3703 C.ar    1  UNL1        0.0028
     25 C          61.5516   86.0233    8.7522 C.ar    1  UNL1        0.0161
     26 C          60.3603   85.9908    7.8414 C.ar    1  UNL1        0.0750
     27 N          60.4250   85.2328    6.5486 N.ar    1  UNL1       -0.2468
     28 C          61.6811   84.5073    6.1667 C.ar    1  UNL1        0.0985
     29 C          64.5286   88.8870   14.4486 C.3     1  UNL1        0.0888
     30 C          64.0465   87.4690   14.5323 C.3     1  UNL1        0.0748
     31 C          63.8600   86.6650   13.2799 C.3     1  UNL1        0.0432
     32 C          63.3779   85.2470   13.3637 C.ar    1  UNL1       -0.0234
     33 C          63.1913   84.4430   12.1112 C.ar    1  UNL1       -0.0045
     34 C          62.7092   83.0251   12.1950 C.ar    1  UNL1       -0.0003
     35 C          62.4137   82.4112   13.5313 C.ar    1  UNL1       -0.0003
     36 C          62.6002   83.2152   14.7838 C.ar    1  UNL1       -0.0032
     37 C          63.0823   84.6331   14.7000 C.ar    1  UNL1       -0.0103
     38 C          63.2688   85.4371   15.9525 C.3     1  UNL1        0.0953
     39 N          63.7509   86.8550   15.8687 N.3     1  UNL1       -0.2934
     40 H          64.6120   86.9059   16.4130 H       1  UNL1        0.1236
@<TRIPOS>BOND
     1    23    24   ar
     2    24    25   ar
     3    25    26   ar
     4    26    22    1
     5    22    20    1
     6    20    19    1
     7    19    13    1
     8    13    14   ar
     9    14    15   ar
    10    15    16   ar
    11    16    12    1
    12    12     1    1
    13     1    29    1
    14    30    29    1
    15    30    31    1
    16    31    32    1
    17    32    33   ar
    18    33    34   ar
    19    34    35   ar
    20    35    36   ar
    21    36    37   ar
    22    37    38    1
    23    38    39    1
    24     2     1    1
    25     2     3    1
    26     3     4    1
    27     4     5    1
    28     5     6    1
    29     6     7   ar
    30     7     8   ar
    31     8     9   ar
    32     9    10   ar
    33    10    11   ar
    34    16    17   ar
    35    17    18   ar
    36    26    27   ar
    37    27    28   ar
    38    28    23   ar
    39    18    13   ar
    40    39    30    1
    41    11     2    1
    42    37    32   ar
    43    11     6   ar
    44    20    21    1
    45    39    40    1
@<TRIPOS>MOLECULE
*****
 40 45 0 0 0
SMALL
GASTEIGER

@<TRIPOS>ATOM
      1 N          63.8214   90.6774   14.2983 N.3     1  UNL1       -0.2641
      2 C          65.2147   91.1815   14.0649 C.3     1  UNL1        0.0981
      3 C          66.2548   91.0340   15.1356 C.3     1  UNL1        0.0224
      4 C          67.6481   91.5382   14.9023 C.3     1  UNL1        0.0065
      5 C          68.0014   92.1899   13.5983 C.3     1  UNL1        0.0277
      6 C          66.9613   92.3374   12.5276 C.ar    1  UNL1       -0.0073
      7 C          67.3145   92.9891   11.2235 C.ar    1  UNL1       -0.0015
      8 C          66.2743   93.1366   10.1528 C.ar    1  UNL1        0.0203
      9 C          64.8810   92.6324   10.3862 C.ar    1  UNL1        0.0985
     10 N          64.5278   91.9808   11.6902 N.ar    1  UNL1       -0.2471
     11 C          65.5679   91.8332   12.7609 C.ar    1  UNL1        0.0695
     12 C          63.4892   89.9519   15.5684 C.3     1  UNL1        0.0994
     13 C          63.9586   85.4822   15.7955 C.ar    1  UNL1       -0.0064
     14 C          63.1223   86.2012   16.8124 C.ar    1  UNL1       -0.0032
     15 C          62.9659   87.6911   16.7367 C.ar    1  UNL1       -0.0032
     16 C          63.6457   88.4620   15.6441 C.ar    1  UNL1       -0.0062
     17 C          64.4819   87.7431   14.6274 C.ar    1  UNL1       -0.0032
     18 C          64.6384   86.2532   14.7031 C.ar    1  UNL1       -0.0032
     19 C          64.1151   83.9923   15.8712 C.3     1  UNL1        0.0959
     20 N          62.9258   83.1018   15.6641 N.3     1  UNL1       -0.2887
     21 H          63.2711   82.1421   15.6754 H       1  UNL1        0.1239
     22 C          62.0871   83.2459   14.4289 C.3     1  UNL1        0.1154
     23 C          63.7918   82.1493   10.4113 C.ar    1  UNL1        0.0207
     24 C          63.8769   83.5645   10.9012 C.ar    1  UNL1        0.0028
     25 C          63.3087   83.9300   12.2404 C.ar    1  UNL1        0.0161
     26 C          62.6553   82.8804   13.0897 C.ar    1  UNL1        0.0750
     27 N          62.5701   81.4652   12.5998 N.ar    1  UNL1       -0.2468
     28 C          63.1383   81.0996   11.2606 C.ar    1  UNL1        0.0985
     29 C          62.7603   90.8986   13.2615 C.3     1  UNL1        0.0888
     30 C          62.4213   89.8068   12.2903 C.3     1  UNL1        0.0748
     31 C          61.4358   90.0622   11.1888 C.3     1  UNL1        0.0432
     32 C          61.0968   88.9703   10.2176 C.ar    1  UNL1       -0.0234
     33 C          60.1112   89.2257    9.1161 C.ar    1  UNL1       -0.0045
     34 C          59.7723   88.1339    8.1450 C.ar    1  UNL1       -0.0003
     35 C          60.4189   86.7867    8.2755 C.ar    1  UNL1       -0.0003
     36 C          61.4044   86.5313    9.3771 C.ar    1  UNL1       -0.0032
     37 C          61.7433   87.6231   10.3481 C.ar    1  UNL1       -0.0103
     38 C          62.7289   87.3678   11.4498 C.3     1  UNL1        0.0953
     39 N          63.0679   88.4596   12.4208 N.3     1  UNL1       -0.2934
     40 H          64.0748   88.6088   12.3564 H       1  UNL1        0.1236
@<TRIPOS>BOND
     1    23    24   ar
     2    24    25   ar
     3    25    26   ar
     4    26    22    1
     5    22    20    1
     6    20    19    1
     7    19    13    1
     8    13    14   ar
     9    14    15   ar
    10    15    16   ar
    11    16    12    1
    12    12     1    1
    13     1    29    1
    14    30    29    1
    15    30    31    1
    16    31    32    1
    17    32    33   ar
    18    33    34   ar
    19    34    35   ar
    20    35    36   ar
    21    36    37   ar
    22    37    38    1
    23    38    39    1
    24     2     1    1
    25     2     3    1
    26     3     4    1
    27     4     5    1
    28     5     6    1
    29     6     7   ar
    30     7     8   ar
    31     8     9   ar
    32     9    10   ar
    33    10    11   ar
    34    16    17   ar
    35    17    18   ar
    36    26    27   ar
    37    27    28   ar
    38    28    23   ar
    39    18    13   ar
    40    39    30    1
    41    11     2    1
    42    37    32   ar
    43    11     6   ar
    44    20    21    1
    45    39    40    1
@<TRIPOS>MOLECULE
*****
 40 45 0 0 0
SMALL
GASTEIGER

@<TRIPOS>ATOM
      1 N          61.9721   87.5638   11.2060 N.3     1  UNL1       -0.2641
      2 C          61.0676   87.2827   10.0428 C.3     1  UNL1        0.0981
      3 C          59.7049   87.9067    9.9845 C.3     1  UNL1        0.0224
      4 C          58.8004   87.6256    8.8213 C.3     1  UNL1        0.0065
      5 C          59.2587   86.7205    7.7165 C.3     1  UNL1        0.0277
      6 C          60.6214   86.0964    7.7749 C.ar    1  UNL1       -0.0073
      7 C          61.0797   85.1912    6.6700 C.ar    1  UNL1       -0.0015
      8 C          62.4425   84.5672    6.7283 C.ar    1  UNL1        0.0203
      9 C          63.3470   84.8483    7.8915 C.ar    1  UNL1        0.0985
     10 N          62.8887   85.7534    8.9963 N.ar    1  UNL1       -0.2471
     11 C          61.5259   86.3775    8.9380 C.ar    1  UNL1        0.0695
     12 C          61.7410   88.7749   12.0602 C.3     1  UNL1        0.0994
     13 C          65.2194   91.3375   13.3187 C.ar    1  UNL1       -0.0064
     14 C          64.4921   91.6353   12.0410 C.ar    1  UNL1       -0.0032
     15 C          63.3326   90.7811   11.6215 C.ar    1  UNL1       -0.0032
     16 C          62.9005   89.6291   12.4797 C.ar    1  UNL1       -0.0062
     17 C          63.6279   89.3314   13.7573 C.ar    1  UNL1       -0.0032
     18 C          64.7873   90.1856   14.1768 C.ar    1  UNL1       -0.0032
     19 C          66.3789   92.1917   13.7382 C.3     1  UNL1        0.0959
     20 N          66.9966   93.1494   12.7627 N.3     1  UNL1       -0.2887
     21 H          67.8875   93.4436   13.1628 H       1  UNL1        0.1239
     22 C          66.2639   94.3986   12.3719 C.3     1  UNL1        0.1154
     23 C          66.9227   96.2152    8.3079 C.ar    1  UNL1        0.0207
     24 C          65.9512   96.8443    9.2622 C.ar    1  UNL1        0.0028
     25 C          65.7316   96.2388   10.6168 C.ar    1  UNL1        0.0161
     26 C          66.4835   95.0041   11.0172 C.ar    1  UNL1        0.0750
     27 N          67.4549   94.3750   10.0631 N.ar    1  UNL1       -0.2468
     28 C          67.6745   94.9806    8.7084 C.ar    1  UNL1        0.0985
     29 C          63.1076   86.6337   11.5149 C.3     1  UNL1        0.0888
     30 C          62.8460   85.3434   12.2339 C.3     1  UNL1        0.0748
     31 C          63.0079   84.0375   11.5141 C.3     1  UNL1        0.0432
     32 C          62.7463   82.7473   12.2331 C.ar    1  UNL1       -0.0234
     33 C          62.9082   81.4413   11.5132 C.ar    1  UNL1       -0.0045
     34 C          62.6465   80.1512   12.2322 C.ar    1  UNL1       -0.0003
     35 C          62.2229   80.1670   13.6710 C.ar    1  UNL1       -0.0003
     36 C          62.0610   81.4729   14.3909 C.ar    1  UNL1       -0.0032
     37 C          62.3227   82.7630   13.6719 C.ar    1  UNL1       -0.0103
     38 C          62.1607   84.0691   14.3918 C.3     1  UNL1        0.0953
     39 N          62.4224   85.3592   13.6728 N.3     1  UNL1       -0.2934
     40 H          63.1571   85.8412   14.1908 H       1  UNL1        0.1236
@<TRIPOS>BOND
     1    23    24   ar
     2    24    25   ar
     3    25    26   ar
     4    26    22    1
     5    22    20    1
     6    20    19    1
     7    19    13    1
     8    13    14   ar
     9    14    15   ar
    10    15    16   ar
    11    16    12    1
    12    12     1    1
    13     1    29    1
    14    30    29    1
    15    30    31    1
    16    31    32    1
    17    32    33   ar
    18    33    34   ar
    19    34    35   ar
    20    35    36   ar
    21    36    37   ar
    22    37    38    1
    23    38    39    1
    24     2     1    1
    25     2     3    1
    26     3     4    1
    27     4     5    1
    28     5     6    1
    29     6     7   ar
    30     7     8   ar
    31     8     9   ar
    32     9    10   ar
    33    10    11   ar
    34    16    17   ar
    35    17    18   ar
    36    26    27   ar
    37    27    28   ar
    38    28    23   ar
    39    18    13   ar
    40    39    30    1
    41    11     2    1
    42    37    32   ar
    43    11     6   ar
    44    20    21    1
    45    39    40    1
@<TRIPOS>MOLECULE
*****
 40 45 0 0 0
SMALL
GASTEIGER

@<TRIPOS>ATOM
      1 N          61.7070   87.1784   11.5654 N.3     1  UNL1       -0.2641
      2 C          62.3741   85.9931   10.9330 C.3     1  UNL1        0.0981
      3 C          62.6239   85.9736    9.4541 C.3     1  UNL1        0.0224
      4 C          63.2910   84.7882    8.8217 C.3     1  UNL1        0.0065
      5 C          63.7084   83.6224    9.6683 C.3     1  UNL1        0.0277
      6 C          63.4587   83.6420   11.1472 C.ar    1  UNL1       -0.0073
      7 C          63.8761   82.4761   11.9938 C.ar    1  UNL1       -0.0015
      8 C          63.6264   82.4957   13.4727 C.ar    1  UNL1        0.0203
      9 C          62.9592   83.6810   14.1050 C.ar    1  UNL1        0.0985
     10 N          62.5418   84.8468   13.2585 N.ar    1  UNL1       -0.2471
     11 C          62.7915   84.8273   11.7795 C.ar    1  UNL1        0.0695
     12 C          60.2954   87.5287   11.1986 C.3     1  UNL1        0.0994
     13 C          59.3976   89.3324    7.1749 C.ar    1  UNL1       -0.0064
     14 C          59.9605   90.1874    8.2713 C.ar    1  UNL1       -0.0032
     15 C          60.2598   89.5862    9.6126 C.ar    1  UNL1       -0.0032
     16 C          59.9961   88.1299    9.8574 C.ar    1  UNL1       -0.0062
     17 C          59.4332   87.2750    8.7610 C.ar    1  UNL1       -0.0032
     18 C          59.1339   87.8762    7.4197 C.ar    1  UNL1       -0.0032
     19 C          59.0983   89.9336    5.8336 C.3     1  UNL1        0.0959
     20 N          59.0911   91.4241    5.6646 N.3     1  UNL1       -0.2887
     21 H          58.4117   91.7927    6.3301 H       1  UNL1        0.1239
     22 C          58.7613   92.0261    4.3308 C.3     1  UNL1        0.1154
     23 C          62.0650   93.1373    1.4847 C.ar    1  UNL1        0.0207
     24 C          62.3744   92.3456    2.7207 C.ar    1  UNL1        0.0028
     25 C          61.2732   91.9752    3.6693 C.ar    1  UNL1        0.0161
     26 C          59.8625   92.3965    3.3822 C.ar    1  UNL1        0.0750
     27 N          59.5530   93.1882    2.1463 N.ar    1  UNL1       -0.2468
     28 C          60.6543   93.5586    1.1975 C.ar    1  UNL1        0.0985
     29 C          62.4515   88.0135   12.5646 C.3     1  UNL1        0.0888
     30 C          63.1271   89.2799   12.1288 C.3     1  UNL1        0.0748
     31 C          64.0218   90.0182   13.0797 C.3     1  UNL1        0.0432
     32 C          64.6974   91.2846   12.6439 C.ar    1  UNL1       -0.0234
     33 C          65.5921   92.0229   13.5949 C.ar    1  UNL1       -0.0045
     34 C          66.2677   93.2892   13.1590 C.ar    1  UNL1       -0.0003
     35 C          66.0486   93.8172   11.7722 C.ar    1  UNL1       -0.0003
     36 C          65.1539   93.0789   10.8213 C.ar    1  UNL1       -0.0032
     37 C          64.4783   91.8126   11.2571 C.ar    1  UNL1       -0.0103
     38 C          63.5836   91.0742   10.3061 C.3     1  UNL1        0.0953
     39 N          62.9080   89.8079   10.7420 N.3     1  UNL1       -0.2934
     40 H          63.2090   89.0767   10.0976 H       1  UNL1        0.1236
@<TRIPOS>BOND
     1    23    24   ar
     2    24    25   ar
     3    25    26   ar
     4    26    22    1
     5    22    20    1
     6    20    19    1
     7    19    13    1
     8    13    14   ar
     9    14    15   ar
    10    15    16   ar
    11    16    12    1
    12    12     1    1
    13     1    29    1
    14    30    29    1
    15    30    31    1
    16    31    32    1
    17    32    33   ar
    18    33    34   ar
    19    34    35   ar
    20    35    36   ar
    21    36    37   ar
    22    37    38    1
    23    38    39    1
    24     2     1    1
    25     2     3    1
    26     3     4    1
    27     4     5    1
    28     5     6    1
    29     6     7   ar
    30     7     8   ar
    31     8     9   ar
    32     9    10   ar
    33    10    11   ar
    34    16    17   ar
    35    17    18   ar
    36    26    27   ar
    37    27    28   ar
    38    28    23   ar
    39    18    13   ar
    40    39    30    1
    41    11     2    1
    42    37    32   ar
    43    11     6   ar
    44    20    21    1
    45    39    40    1
@<TRIPOS>MOLECULE
*****
 40 45 0 0 0
SMALL
GASTEIGER

@<TRIPOS>ATOM
      1 N          63.0715   85.2349   12.8551 N.3     1  UNL1       -0.2641
      2 C          63.2917   84.0164   12.0085 C.3     1  UNL1        0.0981
      3 C          63.9353   84.1466   10.6598 C.3     1  UNL1        0.0224
      4 C          64.1556   82.9281    9.8132 C.3     1  UNL1        0.0065
      5 C          63.7323   81.5795   10.3152 C.3     1  UNL1        0.0277
      6 C          63.0888   81.4494   11.6638 C.ar    1  UNL1       -0.0073
      7 C          62.6655   80.1007   12.1659 C.ar    1  UNL1       -0.0015
      8 C          62.0219   79.9705   13.5145 C.ar    1  UNL1        0.0203
      9 C          61.8016   81.1890   14.3611 C.ar    1  UNL1        0.0985
     10 N          62.2249   82.5376   13.8591 N.ar    1  UNL1       -0.2471
     11 C          62.8685   82.6678   12.5104 C.ar    1  UNL1        0.0695
     12 C          64.1887   85.7745   13.6980 C.3     1  UNL1        0.0994
     13 C          63.5811   89.5282   16.1044 C.ar    1  UNL1       -0.0064
     14 C          64.0251   89.6177   14.6744 C.ar    1  UNL1       -0.0032
     15 C          64.2276   88.3665   13.8722 C.ar    1  UNL1       -0.0032
     16 C          63.9862   87.0257   14.5001 C.ar    1  UNL1       -0.0062
     17 C          63.5423   86.9363   15.9301 C.ar    1  UNL1       -0.0032
     18 C          63.3398   88.1875   16.7322 C.ar    1  UNL1       -0.0032
     19 C          63.3786   90.7794   16.9066 C.3     1  UNL1        0.0959
     20 N          63.8777   92.0941   16.3844 N.3     1  UNL1       -0.2887
     21 H          63.5231   92.1866   15.4325 H       1  UNL1        0.1239
     22 C          65.3515   92.3670   16.3258 C.3     1  UNL1        0.1154
     23 C          67.5088   92.2359   12.3788 C.ar    1  UNL1        0.0207
     24 C          68.2146   91.8148   13.6337 C.ar    1  UNL1        0.0028
     25 C          67.4955   91.8585   14.9493 C.ar    1  UNL1        0.0161
     26 C          66.0706   92.3233   15.0102 C.ar    1  UNL1        0.0750
     27 N          65.3649   92.7444   13.7554 N.ar    1  UNL1       -0.2468
     28 C          66.0840   92.7008   12.4397 C.ar    1  UNL1        0.0985
     29 C          61.7339   85.9138   12.8589 C.3     1  UNL1        0.0888
     30 C          61.3426   86.8064   11.7186 C.3     1  UNL1        0.0748
     31 C          60.7292   86.2187   10.4824 C.3     1  UNL1        0.0432
     32 C          60.3379   87.1113    9.3421 C.ar    1  UNL1       -0.0234
     33 C          59.7244   86.5236    8.1059 C.ar    1  UNL1       -0.0045
     34 C          59.3332   87.4163    6.9657 C.ar    1  UNL1       -0.0003
     35 C          59.5554   88.8966    7.0617 C.ar    1  UNL1       -0.0003
     36 C          60.1689   89.4843    8.2979 C.ar    1  UNL1       -0.0032
     37 C          60.5601   88.5917    9.4381 C.ar    1  UNL1       -0.0103
     38 C          61.1736   89.1794   10.6744 C.3     1  UNL1        0.0953
     39 N          61.5649   88.2867   11.8146 N.3     1  UNL1       -0.2934
     40 H          61.0476   88.6097   12.6323 H       1  UNL1        0.1236
@<TRIPOS>BOND
     1    23    24   ar
     2    24    25   ar
     3    25    26   ar
     4    26    22    1
     5    22    20    1
     6    20    19    1
     7    19    13    1
     8    13    14   ar
     9    14    15   ar
    10    15    16   ar
    11    16    12    1
    12    12     1    1
    13     1    29    1
    14    30    29    1
    15    30    31    1
    16    31    32    1
    17    32    33   ar
    18    33    34   ar
    19    34    35   ar
    20    35    36   ar
    21    36    37   ar
    22    37    38    1
    23    38    39    1
    24     2     1    1
    25     2     3    1
    26     3     4    1
    27     4     5    1
    28     5     6    1
    29     6     7   ar
    30     7     8   ar
    31     8     9   ar
    32     9    10   ar
    33    10    11   ar
    34    16    17   ar
    35    17    18   ar
    36    26    27   ar
    37    27    28   ar
    38    28    23   ar
    39    18    13   ar
    40    39    30    1
    41    11     2    1
    42    37    32   ar
    43    11     6   ar
    44    20    21    1
    45    39    40    1
@<TRIPOS>MOLECULE
*****
 40 45 0 0 0
SMALL
GASTEIGER

@<TRIPOS>ATOM
      1 N          63.4884   85.3158   13.8511 N.3     1  UNL1       -0.2641
      2 C          62.9097   83.9384   13.7181 C.3     1  UNL1        0.0981
      3 C          62.0110   83.3958   14.7896 C.3     1  UNL1        0.0224
      4 C          61.4323   82.0183   14.6566 C.3     1  UNL1        0.0065
      5 C          61.7522   81.1834   13.4522 C.3     1  UNL1        0.0277
      6 C          62.6508   81.7260   12.3808 C.ar    1  UNL1       -0.0073
      7 C          62.9708   80.8912   11.1763 C.ar    1  UNL1       -0.0015
      8 C          63.8694   81.4338   10.1049 C.ar    1  UNL1        0.0203
      9 C          64.4481   82.8112   10.2378 C.ar    1  UNL1        0.0985
     10 N          64.1282   83.6461   11.4422 N.ar    1  UNL1       -0.2471
     11 C          63.2296   83.1035   12.5137 C.ar    1  UNL1        0.0695
     12 C          63.7480   85.8922   15.2113 C.3     1  UNL1        0.0994
     13 C          63.8965   90.3545   15.7734 C.ar    1  UNL1       -0.0064
     14 C          63.1711   89.4970   16.7678 C.ar    1  UNL1       -0.0032
     15 C          63.1216   88.0096   16.5804 C.ar    1  UNL1       -0.0032
     16 C          63.7975   87.3796   15.3987 C.ar    1  UNL1       -0.0062
     17 C          64.5228   88.2371   14.4044 C.ar    1  UNL1       -0.0032
     18 C          64.5723   89.7245   14.5917 C.ar    1  UNL1       -0.0032
     19 C          63.9460   91.8419   15.9607 C.3     1  UNL1        0.0959
     20 N          64.9725   92.4495   16.8703 N.3     1  UNL1       -0.2887
     21 H          64.5706   93.3145   17.2317 H       1  UNL1        0.1239
     22 C          66.3338   92.7924   16.3417 C.3     1  UNL1        0.1154
     23 C          67.1384   92.6216   11.9176 C.ar    1  UNL1        0.0207
     24 C          67.8990   91.7294   12.8532 C.ar    1  UNL1        0.0028
     25 C          67.6309   91.7863   14.3279 C.ar    1  UNL1        0.0161
     26 C          66.6020   92.7355   14.8670 C.ar    1  UNL1        0.0750
     27 N          65.8414   93.6277   13.9315 N.ar    1  UNL1       -0.2468
     28 C          66.1096   93.5708   12.4567 C.ar    1  UNL1        0.0985
     29 C          63.8075   86.1169   12.6238 C.3     1  UNL1        0.0888
     30 C          62.6999   86.6056   11.7380 C.3     1  UNL1        0.0748
     31 C          62.3640   85.8634   10.4786 C.3     1  UNL1        0.0432
     32 C          61.2563   86.3521    9.5928 C.ar    1  UNL1       -0.0234
     33 C          60.9204   85.6099    8.3333 C.ar    1  UNL1       -0.0045
     34 C          59.8128   86.0985    7.4477 C.ar    1  UNL1       -0.0003
     35 C          59.0412   87.3293    7.8215 C.ar    1  UNL1       -0.0003
     36 C          59.3771   88.0715    9.0809 C.ar    1  UNL1       -0.0032
     37 C          60.4847   87.5828    9.9666 C.ar    1  UNL1       -0.0103
     38 C          60.8207   88.3250   11.2262 C.3     1  UNL1        0.0953
     39 N          61.9283   87.8364   12.1118 N.3     1  UNL1       -0.2934
     40 H          61.5162   87.6587   13.0278 H       1  UNL1        0.1236
@<TRIPOS>BOND
     1    23    24   ar
     2    24    25   ar
     3    25    26   ar
     4    26    22    1
     5    22    20    1
     6    20    19    1
     7    19    13    1
     8    13    14   ar
     9    14    15   ar
    10    15    16   ar
    11    16    12    1
    12    12     1    1
    13     1    29    1
    14    30    29    1
    15    30    31    1
    16    31    32    1
    17    32    33   ar
    18    33    34   ar
    19    34    35   ar
    20    35    36   ar
    21    36    37   ar
    22    37    38    1
    23    38    39    1
    24     2     1    1
    25     2     3    1
    26     3     4    1
    27     4     5    1
    28     5     6    1
    29     6     7   ar
    30     7     8   ar
    31     8     9   ar
    32     9    10   ar
    33    10    11   ar
    34    16    17   ar
    35    17    18   ar
    36    26    27   ar
    37    27    28   ar
    38    28    23   ar
    39    18    13   ar
    40    39    30    1
    41    11     2    1
    42    37    32   ar
    43    11     6   ar
    44    20    21    1
    45    39    40    1
@<TRIPOS>MOLECULE
*****
 40 45 0 0 0
SMALL
GASTEIGER

@<TRIPOS>ATOM
      1 N          63.4864   89.6344   13.3857 N.3     1  UNL1       -0.2641
      2 C          64.1710   90.7947   12.7261 C.3     1  UNL1        0.0981
      3 C          63.9173   91.0906   11.2777 C.3     1  UNL1        0.0224
      4 C          64.6018   92.2509   10.6181 C.3     1  UNL1        0.0065
      5 C          65.5401   93.1154   11.4069 C.3     1  UNL1        0.0277
      6 C          65.7938   92.8195   12.8554 C.ar    1  UNL1       -0.0073
      7 C          66.7320   93.6840   13.6443 C.ar    1  UNL1       -0.0015
      8 C          66.9857   93.3882   15.0928 C.ar    1  UNL1        0.0203
      9 C          66.3012   92.2279   15.7524 C.ar    1  UNL1        0.0985
     10 N          65.3630   91.3634   14.9635 N.ar    1  UNL1       -0.2471
     11 C          65.1092   91.6592   13.5150 C.ar    1  UNL1        0.0695
     12 C          62.0155   89.4192   13.1861 C.3     1  UNL1        0.0994
     13 C          60.3153   89.2172    9.0245 C.ar    1  UNL1       -0.0064
     14 C          61.3858   88.2541    9.4450 C.ar    1  UNL1       -0.0032
     15 C          61.9525   88.3215   10.8321 C.ar    1  UNL1       -0.0032
     16 C          61.4488   89.3519   11.7989 C.ar    1  UNL1       -0.0062
     17 C          60.3783   90.3148   11.3785 C.ar    1  UNL1       -0.0032
     18 C          59.8116   90.2475    9.9913 C.ar    1  UNL1       -0.0032
     19 C          59.7486   89.1498    7.6374 C.3     1  UNL1        0.0959
     20 N          59.1334   90.3699    7.0185 N.3     1  UNL1       -0.2887
     21 H          58.2570   90.5402    7.5118 H       1  UNL1        0.1239
     22 C          58.8157   90.3883    5.5526 C.3     1  UNL1        0.1154
     23 C          61.3406   92.8231    2.7336 C.ar    1  UNL1        0.0207
     24 C          61.9736   91.7550    3.5754 C.ar    1  UNL1        0.0028
     25 C          61.1320   90.9434    4.5150 C.ar    1  UNL1        0.0161
     26 C          59.6573   91.1999    4.6130 C.ar    1  UNL1        0.0750
     27 N          59.0243   92.2679    3.7713 N.ar    1  UNL1       -0.2468
     28 C          59.8659   93.0795    2.8315 C.ar    1  UNL1        0.0985
     29 C          64.2729   88.6893   14.2449 C.3     1  UNL1        0.0888
     30 C          63.8984   87.2378   14.3005 C.3     1  UNL1        0.0748
     31 C          63.6558   86.4768   13.0309 C.3     1  UNL1        0.0432
     32 C          63.2814   85.0253   13.0864 C.ar    1  UNL1       -0.0234
     33 C          63.0388   84.2642   11.8168 C.ar    1  UNL1       -0.0045
     34 C          62.6644   82.8128   11.8724 C.ar    1  UNL1       -0.0003
     35 C          62.5326   82.1224   13.1975 C.ar    1  UNL1       -0.0003
     36 C          62.7751   82.8835   14.4671 C.ar    1  UNL1       -0.0032
     37 C          63.1496   84.3349   14.4116 C.ar    1  UNL1       -0.0103
     38 C          63.3922   85.0960   15.6812 C.3     1  UNL1        0.0953
     39 N          63.7666   86.5475   15.6256 N.3     1  UNL1       -0.2934
     40 H          64.6675   86.6373   16.0954 H       1  UNL1        0.1236
@<TRIPOS>BOND
     1    23    24   ar
     2    24    25   ar
     3    25    26   ar
     4    26    22    1
     5    22    20    1
     6    20    19    1
     7    19    13    1
     8    13    14   ar
     9    14    15   ar
    10    15    16   ar
    11    16    12    1
    12    12     1    1
    13     1    29    1
    14    30    29    1
    15    30    31    1
    16    31    32    1
    17    32    33   ar
    18    33    34   ar
    19    34    35   ar
    20    35    36   ar
    21    36    37   ar
    22    37    38    1
    23    38    39    1
    24     2     1    1
    25     2     3    1
    26     3     4    1
    27     4     5    1
    28     5     6    1
    29     6     7   ar
    30     7     8   ar
    31     8     9   ar
    32     9    10   ar
    33    10    11   ar
    34    16    17   ar
    35    17    18   ar
    36    26    27   ar
    37    27    28   ar
    38    28    23   ar
    39    18    13   ar
    40    39    30    1
    41    11     2    1
    42    37    32   ar
    43    11     6   ar
    44    20    21    1
    45    39    40    1
