@<TRIPOS>MOLECULE
*****
 29 32 0 0 0
SMALL
GASTEIGER

@<TRIPOS>ATOM
      1 C          65.7667   94.8381    1.3118 C.3     1  UNL1        0.0902
      2 N          64.6097   94.8541    0.3573 N.3     1  UNL1       -0.2639
      3 C          65.2501   95.5332   -0.8169 C.3     1  UNL1        0.0988
      4 C          65.4115   96.1359   -2.1809 C.2     1  UNL1       -0.0132
      5 C          65.0743   96.5896   -3.5704 C.2     1  UNL1       -0.0255
      6 C          64.2793   96.8395   -4.8175 C.3     1  UNL1        0.0730
      7 C          63.1223   96.8555   -5.7721 C.3     1  UNL1        0.2100
      8 O          61.7429   96.6356   -6.3188 O.3     1  UNL1       -0.4751
      9 C          60.0227   96.0544   -6.2408 C.ar    1  UNL1        0.1386
     10 C          59.2277   96.3043   -7.4880 C.ar    1  UNL1        0.0369
     11 C          57.7923   95.8751   -7.5610 C.ar    1  UNL1        0.0032
     12 C          57.1519   95.1960   -6.3868 C.ar    1  UNL1        0.0017
     13 C          57.9469   94.9461   -5.1396 C.ar    1  UNL1        0.0208
     14 C          59.3823   95.3753   -5.0666 C.ar    1  UNL1        0.0384
     15 C          57.3065   94.2670   -3.9654 C.ar    1  UNL1        0.0858
     16 C          55.8923   93.7103   -3.7064 C.ar    1  UNL1        0.0399
     17 C          55.2519   93.0312   -2.5322 C.ar    1  UNL1        0.1034
     18 N          56.0470   92.7813   -1.2850 N.ar    1  UNL1       -0.2120
     19 C          57.4824   93.2105   -1.2120 C.ar    1  UNL1        0.2207
     20 N          57.1452   93.6642   -2.6014 N.ar    1  UNL1       -0.2135
     21 N          58.2774   92.9606    0.0352 N.pl3   1  UNL1       -0.2825
     22 C          59.4344   92.9447    0.9898 C.ar    1  UNL1        0.0502
     23 C          59.6125   92.4202    2.4285 C.ar    1  UNL1        0.0147
     24 C          60.7696   92.4042    3.3831 C.ar    1  UNL1        0.0010
     25 C          62.0878   92.9910    2.9735 C.ar    1  UNL1       -0.0028
     26 C          62.2492   93.5938    1.6095 C.ar    1  UNL1       -0.0049
     27 C          60.8138   93.1645    1.5365 C.ar    1  UNL1        0.0118
     28 C          63.5676   94.1805    1.2000 C.3     1  UNL1        0.0995
     29 H          57.5933   92.5186    0.5883 H       1  UNL1        0.1551
@<TRIPOS>BOND
     1     1     2    1
     2     2     3    1
     3     3     4    1
     4     4     5    2
     5     5     6    1
     6     6     7    1
     7     7     8    1
     8     8     9    1
     9     9    10   ar
    10    10    11   ar
    11    11    12   ar
    12    12    13   ar
    13    13    14   ar
    14    13    15    1
    15    15    16   ar
    16    16    17   ar
    17    17    18   ar
    18    18    19   ar
    19    19    20   ar
    20    19    21    1
    21    21    22    1
    22    22    23   ar
    23    23    24   ar
    24    24    25   ar
    25    25    26   ar
    26    26    27   ar
    27    26    28    1
    28    28     2    1
    29    14     9   ar
    30    20    15   ar
    31    27    22   ar
    32    21    29    1
