@<TRIPOS>MOLECULE
*****
 18 19 0 0 0
SMALL
GASTEIGER

@<TRIPOS>ATOM
      1 C          66.3070   93.7555   10.4919 C.2     1  UNL1        0.1534
      2 N          66.9299   94.2491   11.7640 N.2     1  UNL1       -0.2495
      3 C          66.3273   93.4819   12.9035 C.3     1  UNL1        0.1454
      4 C          66.5563   93.5395   14.3847 C.3     1  UNL1        0.0596
      5 C          65.7899   92.6294   15.2982 C.3     1  UNL1        0.1421
      6 O          66.0189   92.6870   16.7794 O.3     1  UNL1       -0.3818
      7 C          64.7944   91.6617   14.7303 C.3     1  UNL1        0.1721
      8 O          64.5654   91.6041   13.2489 O.3     1  UNL1       -0.3404
      9 C          65.3318   92.5142   12.3356 C.3     1  UNL1        0.1914
     10 S          65.3193   92.6833   10.8452 S.3     1  UNL1       -0.0498
     11 H          66.6885   93.3605   16.9771 H       1  UNL1        0.2104
     12 C          64.0280   90.7516   15.6436 C.3     1  UNL1        0.1692
     13 O          63.3372   91.3101   16.8523 O.3     1  UNL1       -0.3794
     14 H          63.9992   91.6465   17.4764 H       1  UNL1        0.2105
     15 N          66.6172   94.2477    9.1094 N.pl3   1  UNL1       -0.3135
     16 H          65.9808   94.8356    8.6418 H       1  UNL1        0.1487
     17 C          68.6095   92.5971    8.8719 C.3     1  UNL1        0.0230
     18 C          67.8971   93.8442    8.4392 C.3     1  UNL1        0.0887
@<TRIPOS>BOND
     1    17    18    1
     2    18    15    1
     3    15     1    1
     4     1     2    2
     5     2     3    1
     6     3     4    1
     7     4     5    1
     8     5     6    1
     9     5     7    1
    10     7    12    1
    11    12    13    1
    12     7     8    1
    13     9     8    1
    14     9    10    1
    15    10     1    1
    16     9     3    1
    17    15    16    1
    18     6    11    1
    19    13    14    1
@<TRIPOS>MOLECULE
*****
 18 19 0 0 0
SMALL
GASTEIGER

@<TRIPOS>ATOM
      1 C          63.8529   84.2900   15.3725 C.2     1  UNL1        0.1534
      2 N          63.2745   85.1053   16.4908 N.2     1  UNL1       -0.2495
      3 C          63.4577   86.5547   16.1507 C.3     1  UNL1        0.1454
      4 C          63.0841   87.8115   16.8791 C.3     1  UNL1        0.0596
      5 C          63.4021   89.1490   16.2789 C.3     1  UNL1        0.1421
      6 O          63.0285   90.4059   17.0074 O.3     1  UNL1       -0.3818
      7 C          64.0937   89.2295   14.9503 C.3     1  UNL1        0.1721
      8 O          64.4673   87.9725   14.2219 O.3     1  UNL1       -0.3404
      9 C          64.1493   86.6352   14.8221 C.3     1  UNL1        0.1914
     10 S          64.3935   85.2355   14.3411 S.3     1  UNL1       -0.0498
     11 H          62.5926   90.1777   17.8433 H       1  UNL1        0.2104
     12 C          64.4117   90.5669   14.3501 C.3     1  UNL1        0.1692
     13 O          63.3075   91.5385   14.0558 O.3     1  UNL1       -0.3794
     14 H          62.7377   91.1788   13.3581 H       1  UNL1        0.2105
     15 N          63.8850   82.7921   15.2984 N.pl3   1  UNL1       -0.3135
     16 H          64.3276   82.2735   16.0086 H       1  UNL1        0.1487
     17 C          61.7895   81.7173   14.2013 C.3     1  UNL1        0.0230
     18 C          63.2427   82.0844   14.1423 C.3     1  UNL1        0.0887
@<TRIPOS>BOND
     1    17    18    1
     2    18    15    1
     3    15     1    1
     4     1     2    2
     5     2     3    1
     6     3     4    1
     7     4     5    1
     8     5     6    1
     9     5     7    1
    10     7    12    1
    11    12    13    1
    12     7     8    1
    13     9     8    1
    14     9    10    1
    15    10     1    1
    16     9     3    1
    17    15    16    1
    18     6    11    1
    19    13    14    1
@<TRIPOS>MOLECULE
*****
 18 19 0 0 0
SMALL
GASTEIGER

@<TRIPOS>ATOM
      1 C          63.1859   85.3763   12.5888 C.2     1  UNL1        0.1534
      2 N          63.1093   86.8714   12.4938 N.2     1  UNL1       -0.2495
      3 C          62.2301   87.2175   11.3288 C.3     1  UNL1        0.1454
      4 C          61.7943   88.5336   10.7565 C.3     1  UNL1        0.0596
      5 C          60.8916   88.5687    9.5589 C.3     1  UNL1        0.1421
      6 O          60.4558   89.8849    8.9866 O.3     1  UNL1       -0.3818
      7 C          60.4248   87.2876    8.9338 C.3     1  UNL1        0.1721
      8 O          60.8606   85.9713    9.5063 O.3     1  UNL1       -0.3404
      9 C          61.7633   85.9363   10.7038 C.3     1  UNL1        0.1914
     10 S          62.3540   84.7985   11.4825 S.3     1  UNL1       -0.0498
     11 H          60.8439   90.6073    9.5047 H       1  UNL1        0.2104
     12 C          59.5221   87.3226    7.7364 C.3     1  UNL1        0.1692
     13 O          58.2094   86.5975    7.7652 O.3     1  UNL1       -0.3794
     14 H          58.3688   85.6423    7.8204 H       1  UNL1        0.2105
     15 N          63.9587   84.5962   13.6106 N.pl3   1  UNL1       -0.3135
     16 H          64.9246   84.4490   13.4903 H       1  UNL1        0.1487
     17 C          62.4084   82.8118   14.6890 C.3     1  UNL1        0.0230
     18 C          63.2597   84.0403   14.8158 C.3     1  UNL1        0.0887
@<TRIPOS>BOND
     1    17    18    1
     2    18    15    1
     3    15     1    1
     4     1     2    2
     5     2     3    1
     6     3     4    1
     7     4     5    1
     8     5     6    1
     9     5     7    1
    10     7    12    1
    11    12    13    1
    12     7     8    1
    13     9     8    1
    14     9    10    1
    15    10     1    1
    16     9     3    1
    17    15    16    1
    18     6    11    1
    19    13    14    1
@<TRIPOS>MOLECULE
*****
 18 19 0 0 0
SMALL
GASTEIGER

@<TRIPOS>ATOM
      1 C          62.5128   89.7811   11.8504 C.2     1  UNL1        0.1534
      2 N          63.1660   90.6308   10.8010 N.2     1  UNL1       -0.2495
      3 C          64.1807   91.5043   11.4773 C.3     1  UNL1        0.1454
      4 C          65.1250   92.5418   10.9465 C.3     1  UNL1        0.0596
      5 C          66.0434   93.2695   11.8832 C.3     1  UNL1        0.1421
      6 O          66.9877   94.3070   11.3524 O.3     1  UNL1       -0.3818
      7 C          66.0173   92.9596   13.3506 C.3     1  UNL1        0.1721
      8 O          65.0729   91.9220   13.8813 O.3     1  UNL1       -0.3404
      9 C          64.1546   91.1944   12.9447 C.3     1  UNL1        0.1914
     10 S          63.1238   90.1294   13.1752 S.3     1  UNL1       -0.0498
     11 H          66.8772   94.3836   10.3918 H       1  UNL1        0.2104
     12 C          66.9356   93.6872   14.2872 C.3     1  UNL1        0.1692
     13 O          68.2996   93.1357   14.5794 O.3     1  UNL1       -0.3794
     14 H          68.2133   92.2957   15.0566 H       1  UNL1        0.2105
     15 N          61.4373   88.7620   11.6160 N.pl3   1  UNL1       -0.3135
     16 H          61.5904   87.8202   11.8587 H       1  UNL1        0.1487
     17 C          59.4788   90.4600   11.4402 C.3     1  UNL1        0.0230
     18 C          60.1289   89.1778   11.0120 C.3     1  UNL1        0.0887
@<TRIPOS>BOND
     1    17    18    1
     2    18    15    1
     3    15     1    1
     4     1     2    2
     5     2     3    1
     6     3     4    1
     7     4     5    1
     8     5     6    1
     9     5     7    1
    10     7    12    1
    11    12    13    1
    12     7     8    1
    13     9     8    1
    14     9    10    1
    15    10     1    1
    16     9     3    1
    17    15    16    1
    18     6    11    1
    19    13    14    1
@<TRIPOS>MOLECULE
*****
 18 19 0 0 0
SMALL
GASTEIGER

@<TRIPOS>ATOM
      1 C          61.2213   87.2396    9.6542 C.2     1  UNL1        0.1534
      2 N          62.1487   86.2142    9.0725 N.2     1  UNL1       -0.2495
      3 C          62.6398   85.3451   10.1922 C.3     1  UNL1        0.1454
      4 C          63.5744   84.1722   10.2164 C.3     1  UNL1        0.0596
      5 C          63.8852   83.4875   11.5145 C.3     1  UNL1        0.1421
      6 O          64.8198   82.3146   11.5387 O.3     1  UNL1       -0.3818
      7 C          63.2613   83.9759   12.7881 C.3     1  UNL1        0.1721
      8 O          62.3266   85.1489   12.7638 O.3     1  UNL1       -0.3404
      9 C          62.0159   85.8335   11.4658 C.3     1  UNL1        0.1914
     10 S          61.1392   87.0043   11.1334 S.3     1  UNL1       -0.0498
     11 H          65.1315   82.1308   10.6387 H       1  UNL1        0.2104
     12 C          63.5721   83.2913   14.0861 C.3     1  UNL1        0.1692
     13 O          63.5309   81.7944   14.1732 O.3     1  UNL1       -0.3794
     14 H          62.6200   81.4878   14.0420 H       1  UNL1        0.2105
     15 N          60.5023   88.3121    8.8908 N.pl3   1  UNL1       -0.3135
     16 H          60.5987   89.2549    9.1573 H       1  UNL1        0.1487
     17 C          58.8855   86.6495    7.7195 C.3     1  UNL1        0.0230
     18 C          59.6364   87.9481    7.7213 C.3     1  UNL1        0.0887
@<TRIPOS>BOND
     1    17    18    1
     2    18    15    1
     3    15     1    1
     4     1     2    2
     5     2     3    1
     6     3     4    1
     7     4     5    1
     8     5     6    1
     9     5     7    1
    10     7    12    1
    11    12    13    1
    12     7     8    1
    13     9     8    1
    14     9    10    1
    15    10     1    1
    16     9     3    1
    17    15    16    1
    18     6    11    1
    19    13    14    1
@<TRIPOS>MOLECULE
*****
 18 19 0 0 0
SMALL
GASTEIGER

@<TRIPOS>ATOM
      1 C          61.7584   89.1979   11.5429 C.2     1  UNL1        0.1534
      2 N          62.5532   89.5330   12.7701 N.2     1  UNL1       -0.2495
      3 C          63.5181   90.6248   12.4137 C.3     1  UNL1        0.1454
      4 C          64.5517   91.3535   13.2202 C.3     1  UNL1        0.0596
      5 C          65.3870   92.4219   12.5791 C.3     1  UNL1        0.1421
      6 O          66.4207   93.1507   13.3856 O.3     1  UNL1       -0.3818
      7 C          65.1886   92.7615   11.1316 C.3     1  UNL1        0.1721
      8 O          64.1549   92.0327   10.3251 O.3     1  UNL1       -0.3404
      9 C          63.3197   90.9644   10.9662 C.3     1  UNL1        0.1914
     10 S          62.2321   90.0825   10.4280 S.3     1  UNL1       -0.0498
     11 H          66.4193   92.8121   14.2946 H       1  UNL1        0.2104
     12 C          66.0239   93.8299   10.4906 C.3     1  UNL1        0.1692
     13 O          67.5175   93.7958   10.6250 O.3     1  UNL1       -0.3794
     14 H          67.7618   93.9341   11.5535 H       1  UNL1        0.2105
     15 N          60.6794   88.1603   11.4474 N.pl3   1  UNL1       -0.3135
     16 H          59.7790   88.3529   11.7960 H       1  UNL1        0.1487
     17 C          62.0785   85.9728   11.3615 C.3     1  UNL1        0.0230
     18 C          60.9721   86.8293   10.8208 C.3     1  UNL1        0.0887
@<TRIPOS>BOND
     1    17    18    1
     2    18    15    1
     3    15     1    1
     4     1     2    2
     5     2     3    1
     6     3     4    1
     7     4     5    1
     8     5     6    1
     9     5     7    1
    10     7    12    1
    11    12    13    1
    12     7     8    1
    13     9     8    1
    14     9    10    1
    15    10     1    1
    16     9     3    1
    17    15    16    1
    18     6    11    1
    19    13    14    1
@<TRIPOS>MOLECULE
*****
 18 19 0 0 0
SMALL
GASTEIGER

@<TRIPOS>ATOM
      1 C          63.3208   82.9966   12.9679 C.2     1  UNL1        0.1534
      2 N          62.6259   83.3051   11.6748 N.2     1  UNL1       -0.2495
      3 C          62.5512   84.7966   11.5331 C.3     1  UNL1        0.1454
      4 C          61.9763   85.6754   10.4622 C.3     1  UNL1        0.0596
      5 C          62.0501   87.1676   10.5967 C.3     1  UNL1        0.1421
      6 O          61.4752   88.0465    9.5257 O.3     1  UNL1       -0.3818
      7 C          62.6987   87.7809   11.8022 C.3     1  UNL1        0.1721
      8 O          63.2736   86.9019   12.8732 O.3     1  UNL1       -0.3404
      9 C          63.1998   85.4098   12.7386 C.3     1  UNL1        0.1914
     10 S          63.6754   84.2973   13.6253 S.3     1  UNL1       -0.0498
     11 H          61.0970   87.4949    8.8232 H       1  UNL1        0.2104
     12 C          62.7725   89.2729   11.9367 C.3     1  UNL1        0.1692
     13 O          62.1806   89.9478   13.1385 O.3     1  UNL1       -0.3794
     14 H          61.2175   89.8328   13.1323 H       1  UNL1        0.2105
     15 N          63.6101   81.6276   13.5086 N.pl3   1  UNL1       -0.3135
     16 H          64.5130   81.4073   13.8332 H       1  UNL1        0.1487
     17 C          61.1701   80.9527   14.0925 C.3     1  UNL1        0.0230
     18 C          62.5237   80.5944   13.5546 C.3     1  UNL1        0.0887
@<TRIPOS>BOND
     1    17    18    1
     2    18    15    1
     3    15     1    1
     4     1     2    2
     5     2     3    1
     6     3     4    1
     7     4     5    1
     8     5     6    1
     9     5     7    1
    10     7    12    1
    11    12    13    1
    12     7     8    1
    13     9     8    1
    14     9    10    1
    15    10     1    1
    16     9     3    1
    17    15    16    1
    18     6    11    1
    19    13    14    1
@<TRIPOS>MOLECULE
*****
 18 19 0 0 0
SMALL
GASTEIGER

@<TRIPOS>ATOM
      1 C          63.4257   83.8231   10.7435 C.2     1  UNL1        0.1534
      2 N          63.2311   84.5867    9.4671 N.2     1  UNL1       -0.2495
      3 C          62.3310   85.7513    9.7563 C.3     1  UNL1        0.1454
      4 C          61.7940   86.8459    8.8826 C.3     1  UNL1        0.0596
      5 C          60.8954   87.8968    9.4640 C.3     1  UNL1        0.1421
      6 O          60.3584   88.9915    8.5904 O.3     1  UNL1       -0.3818
      7 C          60.5337   87.8531   10.9191 C.3     1  UNL1        0.1721
      8 O          61.0708   86.7583   11.7928 O.3     1  UNL1       -0.3404
      9 C          61.9694   85.7075   11.2114 C.3     1  UNL1        0.1914
     10 S          62.6460   84.5158   11.8215 S.3     1  UNL1       -0.0498
     11 H          60.6862   88.8730    7.6852 H       1  UNL1        0.2104
     12 C          59.6351   88.9039   11.5006 C.3     1  UNL1        0.1692
     13 O          58.8281   88.6047   12.7291 O.3     1  UNL1       -0.3794
     14 H          58.1693   87.9226   12.5250 H       1  UNL1        0.2105
     15 N          64.2546   82.5843   10.9122 N.pl3   1  UNL1       -0.3135
     16 H          64.8769   82.3079   10.2012 H       1  UNL1        0.1487
     17 C          62.9467   80.8746   12.3669 C.3     1  UNL1        0.0230
     18 C          64.1353   81.7669   12.1641 C.3     1  UNL1        0.0887
@<TRIPOS>BOND
     1    17    18    1
     2    18    15    1
     3    15     1    1
     4     1     2    2
     5     2     3    1
     6     3     4    1
     7     4     5    1
     8     5     6    1
     9     5     7    1
    10     7    12    1
    11    12    13    1
    12     7     8    1
    13     9     8    1
    14     9    10    1
    15    10     1    1
    16     9     3    1
    17    15    16    1
    18     6    11    1
    19    13    14    1
@<TRIPOS>MOLECULE
*****
 18 19 0 0 0
SMALL
GASTEIGER

@<TRIPOS>ATOM
      1 C          61.8399   90.0780   10.5682 C.2     1  UNL1        0.1534
      2 N          62.8646   90.9915    9.9637 N.2     1  UNL1       -0.2495
      3 C          63.8193   91.3985   11.0467 C.3     1  UNL1        0.1454
      4 C          65.0282   92.2863   11.0375 C.3     1  UNL1        0.0596
      5 C          65.8026   92.5121   12.3022 C.3     1  UNL1        0.1421
      6 O          67.0116   93.4000   12.2930 O.3     1  UNL1       -0.3818
      7 C          65.3680   91.8501   13.5761 C.3     1  UNL1        0.1721
      8 O          64.1590   90.9622   13.5852 O.3     1  UNL1       -0.3404
      9 C          63.3847   90.7364   12.3206 C.3     1  UNL1        0.1914
     10 S          62.1613   89.9203   12.0248 S.3     1  UNL1       -0.0498
     11 H          67.1526   93.7449   11.3974 H       1  UNL1        0.2104
     12 C          66.1423   92.0758   14.8407 C.3     1  UNL1        0.1692
     13 O          65.5717   92.9409   15.9252 O.3     1  UNL1       -0.3794
     14 H          65.5073   93.8556   15.6089 H       1  UNL1        0.2105
     15 N          60.6948   89.4350    9.8433 N.pl3   1  UNL1       -0.3135
     16 H          59.9298   89.9805    9.5494 H       1  UNL1        0.1487
     17 C          62.0246   87.2408    9.4347 C.3     1  UNL1        0.0230
     18 C          60.7154   87.9610    9.5663 C.3     1  UNL1        0.0887
@<TRIPOS>BOND
     1    17    18    1
     2    18    15    1
     3    15     1    1
     4     1     2    2
     5     2     3    1
     6     3     4    1
     7     4     5    1
     8     5     6    1
     9     5     7    1
    10     7    12    1
    11    12    13    1
    12     7     8    1
    13     9     8    1
    14     9    10    1
    15    10     1    1
    16     9     3    1
    17    15    16    1
    18     6    11    1
    19    13    14    1
