@<TRIPOS>MOLECULE
*****
 26 29 0 0 0
SMALL
GASTEIGER

@<TRIPOS>ATOM
      1 C          67.2006   92.9987   14.3937 C.ar    1  UNL1        0.1705
      2 N          67.4001   92.3168   13.0727 N.ar    1  UNL1       -0.0621
      3 O          66.4016   91.2021   12.9711 O.2     1  UNL1       -0.3522
      4 C          65.5849   91.1952   14.2292 C.ar    1  UNL1        0.1777
      5 C          64.4554   90.3212   14.6878 C.ar    1  UNL1        0.0333
      6 C          63.8196   90.5576   16.0257 C.ar    1  UNL1       -0.0188
      7 C          62.6901   89.6836   16.4843 C.3     1  UNL1        0.0311
      8 C          64.3134   91.6681   16.9050 C.ar    1  UNL1       -0.0040
      9 C          65.4430   92.5421   16.4464 C.ar    1  UNL1        0.0057
     10 C          66.0787   92.3056   15.1084 C.ar    1  UNL1        0.0717
     11 C          63.9616   89.2107   13.8085 C.ar    1  UNL1        0.0028
     12 C          63.2891   89.5282   12.5058 C.ar    1  UNL1        0.0001
     13 C          62.7953   88.4177   11.6266 C.ar    1  UNL1        0.0013
     14 C          62.9741   86.9899   12.0500 C.ar    1  UNL1        0.0168
     15 C          62.4803   85.8794   11.1707 C.ar    1  UNL1        0.0801
     16 N          62.6590   84.4516   11.5941 N.ar    1  UNL1       -0.1524
     17 N          63.3315   84.1342   12.8969 N.ar    1  UNL1       -0.1467
     18 C          63.8252   85.2446   13.7761 C.ar    1  UNL1        0.1221
     19 C          63.6465   86.6725   13.3527 C.ar    1  UNL1        0.0221
     20 C          64.1403   87.7829   14.2319 C.ar    1  UNL1        0.0017
     21 C          61.8078   86.1969    9.8680 C.3     1  UNL1        0.0421
     22 C          60.4690   86.8735    9.8604 C.3     1  UNL1        0.0064
     23 C          62.4740   85.8377    8.5730 C.3     1  UNL1        0.0064
     24 C          68.9605   93.9806   16.0334 C.3     1  UNL1        0.1097
     25 N          67.9851   94.1686   14.9094 N.pl3   1  UNL1       -0.3140
     26 H          67.8599   95.0597   14.5102 H       1  UNL1        0.1483
@<TRIPOS>BOND
     1    24    25    1
     2    25     1    1
     3     1     2   ar
     4     2     3   ar
     5     3     4   ar
     6     4     5   ar
     7     5    11    1
     8    11    12   ar
     9    12    13   ar
    10    13    14   ar
    11    14    15   ar
    12    15    21    1
    13    21    22    1
    14    21    23    1
    15    15    16   ar
    16    16    17   ar
    17    17    18   ar
    18    18    19   ar
    19    19    20   ar
    20     5     6   ar
    21     6     7    1
    22     6     8   ar
    23     8     9   ar
    24     9    10   ar
    25    10     1   ar
    26    10     4   ar
    27    20    11   ar
    28    19    14   ar
    29    25    26    1
@<TRIPOS>MOLECULE
*****
 26 29 0 0 0
SMALL
GASTEIGER

@<TRIPOS>ATOM
      1 C          62.7251   84.3596   12.3084 C.ar    1  UNL1        0.1705
      2 N          63.7559   84.6976   13.3442 N.ar    1  UNL1       -0.0621
      3 O          63.9556   86.1842   13.3315 O.2     1  UNL1       -0.3522
      4 C          63.0481   86.7649   12.2879 C.ar    1  UNL1        0.1777
      5 C          62.8161   88.1749   11.8316 C.ar    1  UNL1        0.0333
      6 C          61.8235   88.4572   10.7430 C.ar    1  UNL1       -0.0188
      7 C          61.5915   89.8672   10.2868 C.3     1  UNL1        0.0311
      8 C          61.0629   87.3295   10.1106 C.ar    1  UNL1       -0.0040
      9 C          61.2950   85.9195   10.5668 C.ar    1  UNL1        0.0057
     10 C          62.2876   85.6373   11.6555 C.ar    1  UNL1        0.0717
     11 C          63.5766   89.3026   12.4641 C.ar    1  UNL1        0.0028
     12 C          63.9584   89.2303   13.9128 C.ar    1  UNL1        0.0001
     13 C          64.7189   90.3579   14.5452 C.ar    1  UNL1        0.0013
     14 C          65.0977   91.5580   13.7288 C.ar    1  UNL1        0.0168
     15 C          65.8582   92.6857   14.3612 C.ar    1  UNL1        0.0801
     16 N          66.2370   93.8857   13.5448 N.ar    1  UNL1       -0.1524
     17 N          65.8552   93.9580   12.0960 N.ar    1  UNL1       -0.1467
     18 C          65.0947   92.8303   11.4636 C.ar    1  UNL1        0.1221
     19 C          64.7159   91.6303   12.2800 C.ar    1  UNL1        0.0221
     20 C          63.9554   90.5026   11.6477 C.ar    1  UNL1        0.0017
     21 C          66.2400   92.6133   15.8100 C.3     1  UNL1        0.0421
     22 C          67.6871   92.5787   16.2035 C.3     1  UNL1        0.0064
     23 C          65.1747   92.5756   16.8653 C.3     1  UNL1        0.0064
     24 C          62.2823   81.8991   13.0152 C.3     1  UNL1        0.1097
     25 N          62.2202   82.9852   11.9825 N.pl3   1  UNL1       -0.3140
     26 H          61.8482   82.7960   11.0909 H       1  UNL1        0.1483
@<TRIPOS>BOND
     1    24    25    1
     2    25     1    1
     3     1     2   ar
     4     2     3   ar
     5     3     4   ar
     6     4     5   ar
     7     5    11    1
     8    11    12   ar
     9    12    13   ar
    10    13    14   ar
    11    14    15   ar
    12    15    21    1
    13    21    22    1
    14    21    23    1
    15    15    16   ar
    16    16    17   ar
    17    17    18   ar
    18    18    19   ar
    19    19    20   ar
    20     5     6   ar
    21     6     7    1
    22     6     8   ar
    23     8     9   ar
    24     9    10   ar
    25    10     1   ar
    26    10     4   ar
    27    20    11   ar
    28    19    14   ar
    29    25    26    1
@<TRIPOS>MOLECULE
*****
 26 29 0 0 0
SMALL
GASTEIGER

@<TRIPOS>ATOM
      1 C          63.4127   81.7689   10.5774 C.ar    1  UNL1        0.1705
      2 N          63.8981   82.9467    9.7855 N.ar    1  UNL1       -0.0621
      3 O          63.8538   84.1534   10.6753 O.2     1  UNL1       -0.3522
      4 C          63.3410   83.7215   12.0171 C.ar    1  UNL1        0.1777
      5 C          63.0871   84.4797   13.2862 C.ar    1  UNL1        0.0333
      6 C          62.5605   83.7642   14.4947 C.ar    1  UNL1       -0.0188
      7 C          62.3066   84.5224   15.7638 C.3     1  UNL1        0.0311
      8 C          62.2879   82.2903   14.4343 C.ar    1  UNL1       -0.0040
      9 C          62.5418   81.5321   13.1652 C.ar    1  UNL1        0.0057
     10 C          63.0684   82.2477   11.9565 C.ar    1  UNL1        0.0717
     11 C          63.3597   85.9535   13.3466 C.ar    1  UNL1        0.0028
     12 C          64.1277   86.5275   14.5002 C.ar    1  UNL1        0.0001
     13 C          64.4003   88.0012   14.5606 C.ar    1  UNL1        0.0013
     14 C          63.9049   88.9010   13.4675 C.ar    1  UNL1        0.0168
     15 C          64.1776   90.3748   13.5279 C.ar    1  UNL1        0.0801
     16 N          63.6822   91.2746   12.4348 N.ar    1  UNL1       -0.1524
     17 N          62.9142   90.7006   11.2812 N.ar    1  UNL1       -0.1467
     18 C          62.6416   89.2269   11.2208 C.ar    1  UNL1        0.1221
     19 C          63.1369   88.3271   12.3139 C.ar    1  UNL1        0.0221
     20 C          62.8643   86.8533   12.2535 C.ar    1  UNL1        0.0017
     21 C          64.9455   90.9488   14.6815 C.3     1  UNL1        0.0421
     22 C          64.2435   91.2569   15.9708 C.3     1  UNL1        0.0064
     23 C          66.4155   91.2146   14.5458 C.3     1  UNL1        0.0064
     24 C          62.7251   79.2941   10.9680 C.3     1  UNL1        0.1097
     25 N          63.2927   80.3596   10.0778 N.pl3   1  UNL1       -0.3140
     26 H          63.5865   80.1340    9.1656 H       1  UNL1        0.1483
@<TRIPOS>BOND
     1    24    25    1
     2    25     1    1
     3     1     2   ar
     4     2     3   ar
     5     3     4   ar
     6     4     5   ar
     7     5    11    1
     8    11    12   ar
     9    12    13   ar
    10    13    14   ar
    11    14    15   ar
    12    15    21    1
    13    21    22    1
    14    21    23    1
    15    15    16   ar
    16    16    17   ar
    17    17    18   ar
    18    18    19   ar
    19    19    20   ar
    20     5     6   ar
    21     6     7    1
    22     6     8   ar
    23     8     9   ar
    24     9    10   ar
    25    10     1   ar
    26    10     4   ar
    27    20    11   ar
    28    19    14   ar
    29    25    26    1
@<TRIPOS>MOLECULE
*****
 26 29 0 0 0
SMALL
GASTEIGER

@<TRIPOS>ATOM
      1 C          62.8564   85.0403   13.1082 C.ar    1  UNL1        0.1705
      2 N          63.9568   85.6613   13.9164 N.ar    1  UNL1       -0.0621
      3 O          64.1064   87.0877   13.4770 O.2     1  UNL1       -0.3522
      4 C          63.0984   87.3482   12.3972 C.ar    1  UNL1        0.1777
      5 C          62.7842   88.5741   11.5920 C.ar    1  UNL1        0.0333
      6 C          61.6975   88.5347   10.5589 C.ar    1  UNL1       -0.0188
      7 C          61.3833   89.7607    9.7537 C.3     1  UNL1        0.0311
      8 C          60.9248   87.2693   10.3309 C.ar    1  UNL1       -0.0040
      9 C          61.2390   86.0434   11.1361 C.ar    1  UNL1        0.0057
     10 C          62.3259   86.0828   12.1692 C.ar    1  UNL1        0.0717
     11 C          63.5569   89.8395   11.8199 C.ar    1  UNL1        0.0028
     12 C          63.8568   90.7529   10.6685 C.ar    1  UNL1        0.0001
     13 C          64.6294   92.0182   10.8966 C.ar    1  UNL1        0.0013
     14 C          65.1020   92.3702   12.2760 C.ar    1  UNL1        0.0168
     15 C          65.8747   93.6356   12.5039 C.ar    1  UNL1        0.0801
     16 N          66.3473   93.9875   13.8833 N.ar    1  UNL1       -0.1524
     17 N          66.0473   93.0741   15.0348 N.ar    1  UNL1       -0.1467
     18 C          65.2747   91.8088   14.8068 C.ar    1  UNL1        0.1221
     19 C          64.8021   91.4568   13.4274 C.ar    1  UNL1        0.0221
     20 C          64.0295   90.1915   13.1993 C.ar    1  UNL1        0.0017
     21 C          66.1747   94.5489   11.3525 C.3     1  UNL1        0.0421
     22 C          65.6651   95.9597   11.3618 C.3     1  UNL1        0.0064
     23 C          66.9842   94.0515   10.1918 C.3     1  UNL1        0.0064
     24 C          62.3953   82.9263   14.5464 C.3     1  UNL1        0.1097
     25 N          62.3716   83.6252   13.2194 N.pl3   1  UNL1       -0.3140
     26 H          62.0378   83.1551   12.4214 H       1  UNL1        0.1483
@<TRIPOS>BOND
     1    24    25    1
     2    25     1    1
     3     1     2   ar
     4     2     3   ar
     5     3     4   ar
     6     4     5   ar
     7     5    11    1
     8    11    12   ar
     9    12    13   ar
    10    13    14   ar
    11    14    15   ar
    12    15    21    1
    13    21    22    1
    14    21    23    1
    15    15    16   ar
    16    16    17   ar
    17    17    18   ar
    18    18    19   ar
    19    19    20   ar
    20     5     6   ar
    21     6     7    1
    22     6     8   ar
    23     8     9   ar
    24     9    10   ar
    25    10     1   ar
    26    10     4   ar
    27    20    11   ar
    28    19    14   ar
    29    25    26    1
@<TRIPOS>MOLECULE
*****
 26 29 0 0 0
SMALL
GASTEIGER

@<TRIPOS>ATOM
      1 C          67.1203   93.3071   14.3797 C.ar    1  UNL1        0.1705
      2 N          67.1401   92.9615   12.9203 N.ar    1  UNL1       -0.0621
      3 O          66.0559   91.9562   12.6673 O.2     1  UNL1       -0.3522
      4 C          65.3661   91.6806   13.9704 C.ar    1  UNL1        0.1777
      5 C          64.2239   90.7773   14.3301 C.ar    1  UNL1        0.0333
      6 C          63.7395   90.7088   15.7480 C.ar    1  UNL1       -0.0188
      7 C          62.5973   89.8055   16.1077 C.3     1  UNL1        0.0311
      8 C          64.3974   91.5438   16.8065 C.ar    1  UNL1       -0.0040
      9 C          65.5396   92.4471   16.4468 C.ar    1  UNL1        0.0057
     10 C          66.0239   92.5155   15.0287 C.ar    1  UNL1        0.0717
     11 C          63.5660   89.9423   13.2717 C.ar    1  UNL1        0.0028
     12 C          63.9481   88.5011   13.1082 C.ar    1  UNL1        0.0001
     13 C          63.2902   87.6662   12.0498 C.ar    1  UNL1        0.0013
     14 C          62.2503   88.2726   11.1549 C.ar    1  UNL1        0.0168
     15 C          61.5924   87.4377   10.0965 C.ar    1  UNL1        0.0801
     16 N          60.5525   88.0441    9.2016 N.ar    1  UNL1       -0.1524
     17 N          60.1704   89.4854    9.3651 N.ar    1  UNL1       -0.1467
     18 C          60.8283   90.3203   10.4235 C.ar    1  UNL1        0.1221
     19 C          61.8682   89.7139   11.3184 C.ar    1  UNL1        0.0221
     20 C          62.5261   90.5487   12.3768 C.ar    1  UNL1        0.0017
     21 C          61.9745   85.9964    9.9330 C.3     1  UNL1        0.0421
     22 C          62.5138   85.5076    8.6214 C.3     1  UNL1        0.0064
     23 C          61.8173   85.0440   11.0811 C.3     1  UNL1        0.0064
     24 C          69.0626   93.7730   16.0412 C.3     1  UNL1        0.1097
     25 N          68.0362   94.2745   15.0691 N.pl3   1  UNL1       -0.3140
     26 H          67.9636   95.2387   14.8836 H       1  UNL1        0.1483
@<TRIPOS>BOND
     1    24    25    1
     2    25     1    1
     3     1     2   ar
     4     2     3   ar
     5     3     4   ar
     6     4     5   ar
     7     5    11    1
     8    11    12   ar
     9    12    13   ar
    10    13    14   ar
    11    14    15   ar
    12    15    21    1
    13    21    22    1
    14    21    23    1
    15    15    16   ar
    16    16    17   ar
    17    17    18   ar
    18    18    19   ar
    19    19    20   ar
    20     5     6   ar
    21     6     7    1
    22     6     8   ar
    23     8     9   ar
    24     9    10   ar
    25    10     1   ar
    26    10     4   ar
    27    20    11   ar
    28    19    14   ar
    29    25    26    1
@<TRIPOS>MOLECULE
*****
 26 29 0 0 0
SMALL
GASTEIGER

@<TRIPOS>ATOM
      1 C          66.8211   92.8922   14.5176 C.ar    1  UNL1        0.1705
      2 N          67.1127   92.1950   13.2220 N.ar    1  UNL1       -0.0621
      3 O          66.2157   90.9964   13.1286 O.2     1  UNL1       -0.3522
      4 C          65.3698   90.9528   14.3665 C.ar    1  UNL1        0.1777
      5 C          64.3072   89.9975   14.8229 C.ar    1  UNL1        0.0333
      6 C          63.6188   90.2140   16.1379 C.ar    1  UNL1       -0.0188
      7 C          62.5561   89.2587   16.5943 C.3     1  UNL1        0.0311
      8 C          63.9929   91.3857   16.9965 C.ar    1  UNL1       -0.0040
      9 C          65.0555   92.3410   16.5400 C.ar    1  UNL1        0.0057
     10 C          65.7440   92.1245   15.2250 C.ar    1  UNL1        0.0717
     11 C          63.9331   88.8258   13.9644 C.ar    1  UNL1        0.0028
     12 C          64.3142   87.4369   14.3834 C.ar    1  UNL1        0.0001
     13 C          63.9401   86.2652   13.5248 C.ar    1  UNL1        0.0013
     14 C          63.1848   86.4825   12.2472 C.ar    1  UNL1        0.0168
     15 C          62.8106   85.3107   11.3886 C.ar    1  UNL1        0.0801
     16 N          62.0553   85.5280   10.1110 N.ar    1  UNL1       -0.1524
     17 N          61.6742   86.9170    9.6920 N.ar    1  UNL1       -0.1467
     18 C          62.0483   88.0886   10.5505 C.ar    1  UNL1        0.1221
     19 C          62.8036   87.8714   11.8282 C.ar    1  UNL1        0.0221
     20 C          63.1778   89.0430   12.6867 C.ar    1  UNL1        0.0017
     21 C          63.1918   83.9218   11.8077 C.3     1  UNL1        0.0421
     22 C          62.4689   83.2552   12.9404 C.3     1  UNL1        0.0064
     23 C          64.2959   83.1995   11.0941 C.3     1  UNL1        0.0064
     24 C          68.7144   94.0389   15.8780 C.3     1  UNL1        0.1097
     25 N          67.4894   94.1384   15.0181 N.pl3   1  UNL1       -0.3140
     26 H          67.1239   95.0216   14.7823 H       1  UNL1        0.1483
@<TRIPOS>BOND
     1    24    25    1
     2    25     1    1
     3     1     2   ar
     4     2     3   ar
     5     3     4   ar
     6     4     5   ar
     7     5    11    1
     8    11    12   ar
     9    12    13   ar
    10    13    14   ar
    11    14    15   ar
    12    15    21    1
    13    21    22    1
    14    21    23    1
    15    15    16   ar
    16    16    17   ar
    17    17    18   ar
    18    18    19   ar
    19    19    20   ar
    20     5     6   ar
    21     6     7    1
    22     6     8   ar
    23     8     9   ar
    24     9    10   ar
    25    10     1   ar
    26    10     4   ar
    27    20    11   ar
    28    19    14   ar
    29    25    26    1
@<TRIPOS>MOLECULE
*****
 26 29 0 0 0
SMALL
GASTEIGER

@<TRIPOS>ATOM
      1 C          63.5680   84.1574   14.8143 C.ar    1  UNL1        0.1705
      2 N          64.2173   84.5478   13.5198 N.ar    1  UNL1       -0.0621
      3 O          64.3940   86.0373   13.5206 O.2     1  UNL1       -0.3522
      4 C          63.8539   86.5675   14.8157 C.ar    1  UNL1        0.1777
      5 C          63.7611   87.9582   15.3702 C.ar    1  UNL1        0.0333
      6 C          63.1576   88.1869   16.7242 C.ar    1  UNL1       -0.0188
      7 C          63.0648   89.5776   17.2787 C.3     1  UNL1        0.0311
      8 C          62.6471   87.0250   17.5239 C.ar    1  UNL1       -0.0040
      9 C          62.7400   85.6343   16.9694 C.ar    1  UNL1        0.0057
     10 C          63.3434   85.4056   15.6152 C.ar    1  UNL1        0.0717
     11 C          64.2716   89.1201   14.5705 C.ar    1  UNL1        0.0028
     12 C          63.6044   89.4934   13.2801 C.ar    1  UNL1        0.0001
     13 C          64.1150   90.6553   12.4805 C.ar    1  UNL1        0.0013
     14 C          65.2927   91.4438   12.9714 C.ar    1  UNL1        0.0168
     15 C          65.8033   92.6057   12.1718 C.ar    1  UNL1        0.0801
     16 N          66.9811   93.3943   12.6627 N.ar    1  UNL1       -0.1524
     17 N          67.6483   93.0209   13.9533 N.ar    1  UNL1       -0.1467
     18 C          67.1377   91.8591   14.7529 C.ar    1  UNL1        0.1221
     19 C          65.9600   91.0705   14.2619 C.ar    1  UNL1        0.0221
     20 C          65.4494   89.9086   15.0615 C.ar    1  UNL1        0.0017
     21 C          65.1361   92.9790   10.8813 C.3     1  UNL1        0.0421
     22 C          65.5063   94.2565   10.1876 C.3     1  UNL1        0.0064
     23 C          64.0986   92.0750   10.2844 C.3     1  UNL1        0.0064
     24 C          62.1873   81.9860   14.4556 C.3     1  UNL1        0.1097
     25 N          63.2067   82.7635   15.2343 N.pl3   1  UNL1       -0.3140
     26 H          63.6386   82.3588   16.0210 H       1  UNL1        0.1483
@<TRIPOS>BOND
     1    24    25    1
     2    25     1    1
     3     1     2   ar
     4     2     3   ar
     5     3     4   ar
     6     4     5   ar
     7     5    11    1
     8    11    12   ar
     9    12    13   ar
    10    13    14   ar
    11    14    15   ar
    12    15    21    1
    13    21    22    1
    14    21    23    1
    15    15    16   ar
    16    16    17   ar
    17    17    18   ar
    18    18    19   ar
    19    19    20   ar
    20     5     6   ar
    21     6     7    1
    22     6     8   ar
    23     8     9   ar
    24     9    10   ar
    25    10     1   ar
    26    10     4   ar
    27    20    11   ar
    28    19    14   ar
    29    25    26    1
@<TRIPOS>MOLECULE
*****
 26 29 0 0 0
SMALL
GASTEIGER

@<TRIPOS>ATOM
      1 C          61.7549   85.5994    7.8796 C.ar    1  UNL1        0.1705
      2 N          63.2000   85.7158    8.2642 N.ar    1  UNL1       -0.0621
      3 O          63.3480   86.9148    9.1532 O.2     1  UNL1       -0.3522
      4 C          61.9943   87.5395    9.3182 C.ar    1  UNL1        0.1777
      5 C          61.5309   88.7435   10.0834 C.ar    1  UNL1        0.0333
      6 C          60.0830   89.1346   10.0616 C.ar    1  UNL1       -0.0188
      7 C          59.6197   90.3386   10.8268 C.3     1  UNL1        0.0311
      8 C          59.0983   88.3216    9.2744 C.ar    1  UNL1       -0.0040
      9 C          59.5617   87.1176    8.5091 C.ar    1  UNL1        0.0057
     10 C          61.0097   86.7265    8.5310 C.ar    1  UNL1        0.0717
     11 C          62.5156   89.5565   10.8706 C.ar    1  UNL1        0.0028
     12 C          62.8716   89.1534   12.2709 C.ar    1  UNL1        0.0001
     13 C          63.8562   89.9663   13.0579 C.ar    1  UNL1        0.0013
     14 C          64.4849   91.1824   12.4448 C.ar    1  UNL1        0.0168
     15 C          65.4696   91.9953   13.2319 C.ar    1  UNL1        0.0801
     16 N          66.0983   93.2114   12.6188 N.ar    1  UNL1       -0.1524
     17 N          65.7423   93.6144   11.2184 N.ar    1  UNL1       -0.1467
     18 C          64.7577   92.8015   10.4313 C.ar    1  UNL1        0.1221
     19 C          64.1290   91.5855   11.0445 C.ar    1  UNL1        0.0221
     20 C          63.1443   90.7725   10.2574 C.ar    1  UNL1        0.0017
     21 C          65.8255   91.5922   14.6322 C.3     1  UNL1        0.0421
     22 C          64.7554   91.4910   15.6785 C.3     1  UNL1        0.0064
     23 C          67.2516   91.2904   14.9862 C.3     1  UNL1        0.0064
     24 C          61.8092   84.2027    5.6896 C.3     1  UNL1        0.1097
     25 N          61.1594   84.5417    6.9984 N.pl3   1  UNL1       -0.3140
     26 H          60.3422   84.0699    7.2790 H       1  UNL1        0.1483
@<TRIPOS>BOND
     1    24    25    1
     2    25     1    1
     3     1     2   ar
     4     2     3   ar
     5     3     4   ar
     6     4     5   ar
     7     5    11    1
     8    11    12   ar
     9    12    13   ar
    10    13    14   ar
    11    14    15   ar
    12    15    21    1
    13    21    22    1
    14    21    23    1
    15    15    16   ar
    16    16    17   ar
    17    17    18   ar
    18    18    19   ar
    19    19    20   ar
    20     5     6   ar
    21     6     7    1
    22     6     8   ar
    23     8     9   ar
    24     9    10   ar
    25    10     1   ar
    26    10     4   ar
    27    20    11   ar
    28    19    14   ar
    29    25    26    1
@<TRIPOS>MOLECULE
*****
 26 29 0 0 0
SMALL
GASTEIGER

@<TRIPOS>ATOM
      1 C          63.2951   83.9825   14.8048 C.ar    1  UNL1        0.1705
      2 N          63.7623   84.3418   13.4255 N.ar    1  UNL1       -0.0621
      3 O          63.9448   85.8296   13.3708 O.2     1  UNL1       -0.3522
      4 C          63.5903   86.3899   14.7163 C.ar    1  UNL1        0.1777
      5 C          63.5814   87.7921   15.2490 C.ar    1  UNL1        0.0333
      6 C          63.1709   88.0528   16.6679 C.ar    1  UNL1       -0.0188
      7 C          63.1619   89.4550   17.2006 C.3     1  UNL1        0.0311
      8 C          62.7693   86.9112   17.5543 C.ar    1  UNL1       -0.0040
      9 C          62.7783   85.5090   17.0216 C.ar    1  UNL1        0.0057
     10 C          63.1888   85.2483   15.6026 C.ar    1  UNL1        0.0717
     11 C          63.9829   88.9337   14.3626 C.ar    1  UNL1        0.0028
     12 C          65.1106   89.8364   14.7668 C.ar    1  UNL1        0.0001
     13 C          65.5121   90.9779   13.8805 C.ar    1  UNL1        0.0013
     14 C          64.7860   91.2167   12.5898 C.ar    1  UNL1        0.0168
     15 C          65.1875   92.3583   11.7034 C.ar    1  UNL1        0.0801
     16 N          64.4614   92.5971   10.4128 N.ar    1  UNL1       -0.1524
     17 N          63.3337   91.6942   10.0086 N.ar    1  UNL1       -0.1467
     18 C          62.9322   90.5527   10.8949 C.ar    1  UNL1        0.1221
     19 C          63.6583   90.3140   12.1856 C.ar    1  UNL1        0.0221
     20 C          63.2568   89.1725   13.0719 C.ar    1  UNL1        0.0017
     21 C          66.3151   93.2610   12.1077 C.3     1  UNL1        0.0421
     22 C          66.2059   94.7412   11.8901 C.3     1  UNL1        0.0064
     23 C          67.5520   92.6837   12.7296 C.3     1  UNL1        0.0064
     24 C          62.1019   81.6954   14.4957 C.3     1  UNL1        0.1097
     25 N          62.9880   82.6002   15.2996 N.pl3   1  UNL1       -0.3140
     26 H          63.3681   82.2867   16.1520 H       1  UNL1        0.1483
@<TRIPOS>BOND
     1    24    25    1
     2    25     1    1
     3     1     2   ar
     4     2     3   ar
     5     3     4   ar
     6     4     5   ar
     7     5    11    1
     8    11    12   ar
     9    12    13   ar
    10    13    14   ar
    11    14    15   ar
    12    15    21    1
    13    21    22    1
    14    21    23    1
    15    15    16   ar
    16    16    17   ar
    17    17    18   ar
    18    18    19   ar
    19    19    20   ar
    20     5     6   ar
    21     6     7    1
    22     6     8   ar
    23     8     9   ar
    24     9    10   ar
    25    10     1   ar
    26    10     4   ar
    27    20    11   ar
    28    19    14   ar
    29    25    26    1
