@<TRIPOS>MOLECULE
*****
 39 42 0 0 0
SMALL
GASTEIGER

@<TRIPOS>ATOM
      1 C          63.1428   90.0406   12.3673 C.ar    1  UNL1        0.2144
      2 C          63.0120   90.2225   10.8841 C.ar    1  UNL1        0.1822
      3 O          63.8051   91.2873   10.1863 O.2     1  UNL1       -0.4500
      4 C          64.7290   92.1703   10.9716 C.ar    1  UNL1        0.1545
      5 C          65.5221   93.2352   10.2737 C.ar    1  UNL1        0.0744
      6 C          66.4460   94.1181   11.0590 C.ar    1  UNL1        0.1397
      7 O          67.2392   95.1831   10.3612 O.3     1  UNL1       -0.5053
      8 C          66.5768   93.9362   12.5422 C.ar    1  UNL1        0.0735
      9 C          65.7838   92.8714   13.2401 C.ar    1  UNL1        0.1428
     10 O          65.9146   92.6895   14.7232 O.3     1  UNL1       -0.5052
     11 C          64.8599   91.9884   12.4548 C.ar    1  UNL1        0.1104
     12 C          64.0667   90.9235   13.1526 C.ar    1  UNL1        0.2382
     13 O          64.1975   90.7416   14.6358 O.2     1  UNL1       -0.2830
     14 H          67.1575   95.2967    9.4347 H       1  UNL1        0.2922
     15 H          66.4917   93.2410   15.2138 H       1  UNL1        0.2922
     16 C          62.0880   89.3395   10.0988 C.ar    1  UNL1        0.0379
     17 C          60.7100   89.8180    9.7495 C.ar    1  UNL1        0.0062
     18 C          59.7861   88.9350    8.9642 C.ar    1  UNL1        0.0367
     19 C          60.2402   87.5734    8.5283 C.ar    1  UNL1        0.1337
     20 O          59.3163   86.6904    7.7430 O.3     1  UNL1       -0.5055
     21 C          61.6183   87.0949    8.8776 C.ar    1  UNL1        0.0367
     22 C          62.5421   87.9779    9.6629 C.ar    1  UNL1        0.0062
     23 H          58.4555   86.9894    7.5248 H       1  UNL1        0.2922
     24 O          62.3497   88.9756   13.0652 O.3     1  UNL1       -0.4441
     25 C          63.9460   84.7752   13.3058 C.3     1  UNL1        0.2249
     26 C          64.2708   85.7640   14.3859 C.3     1  UNL1        0.1862
     27 O          65.1278   85.3527   15.5462 O.3     1  UNL1       -0.3784
     28 C          63.7387   87.1642   14.3057 C.3     1  UNL1        0.2117
     29 O          64.0636   88.1530   15.3858 O.3     1  UNL1       -0.3766
     30 C          62.8818   87.5755   13.1454 C.3     1  UNL1        0.3182
     31 O          62.5569   86.5866   12.0652 O.3     1  UNL1       -0.3174
     32 C          63.0890   85.1865   12.1454 C.3     1  UNL1        0.1614
     33 C          62.7641   84.1977   11.0653 C.3     1  UNL1        0.0361
     34 H          65.3855   84.4231   15.4444 H       1  UNL1        0.2106
     35 H          63.6446   89.0038   15.1819 H       1  UNL1        0.2107
     36 O          64.4781   83.3750   13.3860 O.3     1  UNL1       -0.4471
     37 C          63.5159   80.9617   13.3769 C.3     1  UNL1        0.1212
     38 C          63.6627   82.2991   14.0400 C.2     1  UNL1        0.3176
     39 O          62.9942   82.5607   15.3570 O.2     1  UNL1       -0.2501
@<TRIPOS>BOND
     1    37    38    1
     2    38    39    2
     3    38    36    1
     4    25    36    1
     5    25    26    1
     6    26    27    1
     7    26    28    1
     8    28    29    1
     9    28    30    1
    10    30    24    1
    11    24     1    1
    12     1     2   ar
    13     2    16    1
    14    16    17   ar
    15    17    18   ar
    16    18    19   ar
    17    19    20    1
    18    19    21   ar
    19    21    22   ar
    20     2     3   ar
    21     3     4   ar
    22     4     5   ar
    23     5     6   ar
    24     6     7    1
    25     6     8   ar
    26     8     9   ar
    27     9    10    1
    28     9    11   ar
    29    11    12   ar
    30    12    13    2
    31    30    31    1
    32    31    32    1
    33    32    33    1
    34    32    25    1
    35    12     1   ar
    36    22    16   ar
    37    11     4   ar
    38    27    34    1
    39    29    35    1
    40    20    23    1
    41     7    14    1
    42    10    15    1
@<TRIPOS>MOLECULE
*****
 39 42 0 0 0
SMALL
GASTEIGER

@<TRIPOS>ATOM
      1 C          62.3300   87.6629   11.8501 C.ar    1  UNL1        0.2144
      2 C          61.8319   86.8124   10.7194 C.ar    1  UNL1        0.1822
      3 O          62.1671   85.3510   10.6759 O.2     1  UNL1       -0.4500
      4 C          63.0003   84.7400   11.7633 C.ar    1  UNL1        0.1545
      5 C          63.3355   83.2786   11.7199 C.ar    1  UNL1        0.0744
      6 C          64.1688   82.6676   12.8073 C.ar    1  UNL1        0.1397
      7 O          64.5040   81.2062   12.7639 O.3     1  UNL1       -0.5053
      8 C          64.6668   83.5181   13.9380 C.ar    1  UNL1        0.0735
      9 C          64.3317   84.9795   13.9815 C.ar    1  UNL1        0.1428
     10 O          64.8297   85.8299   15.1123 O.3     1  UNL1       -0.5052
     11 C          63.4984   85.5904   12.8941 C.ar    1  UNL1        0.1104
     12 C          63.1632   87.0519   12.9375 C.ar    1  UNL1        0.2382
     13 O          63.6613   87.9023   14.0683 O.2     1  UNL1       -0.2830
     14 H          64.1928   80.6749   12.0575 H       1  UNL1        0.2922
     15 H          65.3502   85.4482   15.7915 H       1  UNL1        0.2922
     16 C          60.9986   87.4234    9.6320 C.ar    1  UNL1        0.0379
     17 C          61.0023   88.9097    9.4297 C.ar    1  UNL1        0.0062
     18 C          60.1691   89.5207    8.3423 C.ar    1  UNL1        0.0367
     19 C          59.3321   88.6454    7.4572 C.ar    1  UNL1        0.1337
     20 O          58.4988   89.2564    6.3698 O.3     1  UNL1       -0.5055
     21 C          59.3284   87.1591    7.6595 C.ar    1  UNL1        0.0367
     22 C          60.1616   86.5481    8.7469 C.ar    1  UNL1        0.0062
     23 H          58.5012   90.1848    6.2435 H       1  UNL1        0.2922
     24 O          61.9948   89.1243   11.8935 O.3     1  UNL1       -0.4441
     25 C          65.0640   92.0956   13.3081 C.3     1  UNL1        0.2249
     26 C          64.1323   91.4535   14.2927 C.3     1  UNL1        0.1862
     27 O          64.2237   91.8018   15.7488 O.3     1  UNL1       -0.3784
     28 C          63.1092   90.4630   13.8211 C.3     1  UNL1        0.2117
     29 O          62.1775   89.8209   14.8057 O.3     1  UNL1       -0.3766
     30 C          63.0178   90.1148   12.3650 C.3     1  UNL1        0.3182
     31 O          63.9496   90.7569   11.3803 O.3     1  UNL1       -0.3174
     32 C          64.9727   91.7474   11.8519 C.3     1  UNL1        0.1614
     33 C          65.9044   92.3895   10.8673 C.3     1  UNL1        0.0361
     34 H          64.9315   92.4515   15.8820 H       1  UNL1        0.2106
     35 H          61.5844   89.2113   14.3394 H       1  UNL1        0.2107
     36 O          66.0871   93.0861   13.7796 O.3     1  UNL1       -0.4471
     37 C          67.6721   92.7228   15.8058 C.3     1  UNL1        0.1212
     38 C          67.3947   92.6062   14.3363 C.2     1  UNL1        0.3176
     39 O          68.4248   92.0098   13.4236 O.2     1  UNL1       -0.2501
@<TRIPOS>BOND
     1    37    38    1
     2    38    39    2
     3    38    36    1
     4    25    36    1
     5    25    26    1
     6    26    27    1
     7    26    28    1
     8    28    29    1
     9    28    30    1
    10    30    24    1
    11    24     1    1
    12     1     2   ar
    13     2    16    1
    14    16    17   ar
    15    17    18   ar
    16    18    19   ar
    17    19    20    1
    18    19    21   ar
    19    21    22   ar
    20     2     3   ar
    21     3     4   ar
    22     4     5   ar
    23     5     6   ar
    24     6     7    1
    25     6     8   ar
    26     8     9   ar
    27     9    10    1
    28     9    11   ar
    29    11    12   ar
    30    12    13    2
    31    30    31    1
    32    31    32    1
    33    32    33    1
    34    32    25    1
    35    12     1   ar
    36    22    16   ar
    37    11     4   ar
    38    27    34    1
    39    29    35    1
    40    20    23    1
    41     7    14    1
    42    10    15    1
@<TRIPOS>MOLECULE
*****
 39 42 0 0 0
SMALL
GASTEIGER

@<TRIPOS>ATOM
      1 C          62.3391   87.5735   11.8924 C.ar    1  UNL1        0.2144
      2 C          61.8180   86.7186   10.7755 C.ar    1  UNL1        0.1822
      3 O          62.1160   85.2487   10.7542 O.2     1  UNL1       -0.4500
      4 C          62.9352   84.6336   11.8500 C.ar    1  UNL1        0.1545
      5 C          63.2333   83.1637   11.8287 C.ar    1  UNL1        0.0744
      6 C          64.0525   82.5487   12.9245 C.ar    1  UNL1        0.1397
      7 O          64.3506   81.0787   12.9033 O.3     1  UNL1       -0.5053
      8 C          64.5737   83.4036   14.0414 C.ar    1  UNL1        0.0735
      9 C          64.2756   84.8735   14.0626 C.ar    1  UNL1        0.1428
     10 O          64.7968   85.7284   15.1795 O.3     1  UNL1       -0.5052
     11 C          63.4564   85.4885   12.9669 C.ar    1  UNL1        0.1104
     12 C          63.1583   86.9585   12.9881 C.ar    1  UNL1        0.2382
     13 O          63.6795   87.8134   14.1050 O.2     1  UNL1       -0.2830
     14 H          64.0250   80.5447   12.2056 H       1  UNL1        0.2922
     15 H          65.3085   85.3442   15.8640 H       1  UNL1        0.2922
     16 C          60.9987   87.3337    9.6797 C.ar    1  UNL1        0.0379
     17 C          60.1960   86.4595    8.7624 C.ar    1  UNL1        0.0062
     18 C          59.3769   87.0746    7.6667 C.ar    1  UNL1        0.0367
     19 C          59.3603   88.5639    7.4884 C.ar    1  UNL1        0.1337
     20 O          58.5411   89.1790    6.3926 O.3     1  UNL1       -0.5055
     21 C          60.1630   89.4381    8.4057 C.ar    1  UNL1        0.0367
     22 C          60.9822   88.8230    9.5014 C.ar    1  UNL1        0.0062
     23 H          58.0397   88.6329    5.8196 H       1  UNL1        0.2922
     24 O          62.0410   89.0435   11.9136 O.3     1  UNL1       -0.4441
     25 C          64.8328   91.8752   14.0201 C.3     1  UNL1        0.2249
     26 C          64.7923   91.8384   12.5211 C.3     1  UNL1        0.1862
     27 O          65.6823   92.7455   11.7243 O.3     1  UNL1       -0.3784
     28 C          63.8617   90.8945   11.8189 C.3     1  UNL1        0.2117
     29 O          63.8211   90.8577   10.3200 O.3     1  UNL1       -0.3766
     30 C          62.9716   89.9874   12.6157 C.3     1  UNL1        0.3182
     31 O          63.0122   90.0241   14.1148 O.3     1  UNL1       -0.3174
     32 C          63.9428   90.9680   14.8170 C.3     1  UNL1        0.1614
     33 C          63.9834   91.0048   16.3159 C.3     1  UNL1        0.0361
     34 H          66.2160   93.2862   12.3274 H       1  UNL1        0.2106
     35 H          63.1715   90.1982   10.0302 H       1  UNL1        0.2107
     36 O          65.7635   92.8191   14.7222 O.3     1  UNL1       -0.4471
     37 C          67.8990   92.3539   16.1269 C.3     1  UNL1        0.1212
     38 C          67.2299   92.5120   14.7937 C.2     1  UNL1        0.3176
     39 O          68.0273   92.3629   13.5321 O.2     1  UNL1       -0.2501
@<TRIPOS>BOND
     1    37    38    1
     2    38    39    2
     3    38    36    1
     4    25    36    1
     5    25    26    1
     6    26    27    1
     7    26    28    1
     8    28    29    1
     9    28    30    1
    10    30    24    1
    11    24     1    1
    12     1     2   ar
    13     2    16    1
    14    16    17   ar
    15    17    18   ar
    16    18    19   ar
    17    19    20    1
    18    19    21   ar
    19    21    22   ar
    20     2     3   ar
    21     3     4   ar
    22     4     5   ar
    23     5     6   ar
    24     6     7    1
    25     6     8   ar
    26     8     9   ar
    27     9    10    1
    28     9    11   ar
    29    11    12   ar
    30    12    13    2
    31    30    31    1
    32    31    32    1
    33    32    33    1
    34    32    25    1
    35    12     1   ar
    36    22    16   ar
    37    11     4   ar
    38    27    34    1
    39    29    35    1
    40    20    23    1
    41     7    14    1
    42    10    15    1
@<TRIPOS>MOLECULE
*****
 39 42 0 0 0
SMALL
GASTEIGER

@<TRIPOS>ATOM
      1 C          63.1634   88.0193   12.4933 C.ar    1  UNL1        0.2144
      2 C          63.1033   89.5175   12.4486 C.ar    1  UNL1        0.1822
      3 O          62.3096   90.2046   11.3773 O.2     1  UNL1       -0.4500
      4 C          61.5759   89.3937   10.3506 C.ar    1  UNL1        0.1545
      5 C          60.7822   90.0809    9.2793 C.ar    1  UNL1        0.0744
      6 C          60.0486   89.2699    8.2526 C.ar    1  UNL1        0.1397
      7 O          59.2548   89.9571    7.1812 O.3     1  UNL1       -0.5053
      8 C          60.1087   87.7718    8.2972 C.ar    1  UNL1        0.0735
      9 C          60.9025   87.0846    9.3685 C.ar    1  UNL1        0.1428
     10 O          60.9626   85.5865    9.4131 O.3     1  UNL1       -0.5052
     11 C          61.6361   87.8956   10.3952 C.ar    1  UNL1        0.1104
     12 C          62.4298   87.2084   11.4666 C.ar    1  UNL1        0.2382
     13 O          62.4900   85.7103   11.5112 O.2     1  UNL1       -0.2830
     14 H          59.2173   90.8929    7.1533 H       1  UNL1        0.2922
     15 H          60.5043   85.0799    8.7718 H       1  UNL1        0.2922
     16 C          63.8370   90.3284   13.4754 C.ar    1  UNL1        0.0379
     17 C          63.4052   90.2883   14.9113 C.ar    1  UNL1        0.0062
     18 C          64.1388   91.0993   15.9380 C.ar    1  UNL1        0.0367
     19 C          65.3043   91.9503   15.5287 C.ar    1  UNL1        0.1337
     20 O          66.0379   92.7612   16.5555 O.3     1  UNL1       -0.5055
     21 C          65.7361   91.9904   14.0928 C.ar    1  UNL1        0.0367
     22 C          65.0024   91.1794   13.0662 C.ar    1  UNL1        0.0062
     23 H          65.7682   92.7362   17.4525 H       1  UNL1        0.2922
     24 O          63.9572   87.3322   13.5646 O.3     1  UNL1       -0.4441
     25 C          63.5497   82.8915   14.1685 C.3     1  UNL1        0.2249
     26 C          63.1085   83.8384   15.2449 C.3     1  UNL1        0.1862
     27 O          62.5314   83.3051   16.5226 O.3     1  UNL1       -0.3784
     28 C          63.2443   85.3186   15.0436 C.3     1  UNL1        0.2117
     29 O          62.8031   86.2655   16.1200 O.3     1  UNL1       -0.3766
     30 C          63.8214   85.8520   13.7659 C.3     1  UNL1        0.3182
     31 O          64.2626   84.9050   12.6895 O.3     1  UNL1       -0.3174
     32 C          64.1268   83.4248   12.8908 C.3     1  UNL1        0.1614
     33 C          64.5680   82.4779   11.8144 C.3     1  UNL1        0.0361
     34 H          62.5145   82.3358   16.4900 H       1  UNL1        0.2106
     35 H          62.9589   87.1784   15.8314 H       1  UNL1        0.2107
     36 O          63.4138   81.4113   14.3698 O.3     1  UNL1       -0.4471
     37 C          60.8734   80.9169   14.1423 C.3     1  UNL1        0.1212
     38 C          62.2892   80.6655   13.7151 C.2     1  UNL1        0.3176
     39 O          62.5802   79.6682   12.6331 O.2     1  UNL1       -0.2501
@<TRIPOS>BOND
     1    37    38    1
     2    38    39    2
     3    38    36    1
     4    25    36    1
     5    25    26    1
     6    26    27    1
     7    26    28    1
     8    28    29    1
     9    28    30    1
    10    30    24    1
    11    24     1    1
    12     1     2   ar
    13     2    16    1
    14    16    17   ar
    15    17    18   ar
    16    18    19   ar
    17    19    20    1
    18    19    21   ar
    19    21    22   ar
    20     2     3   ar
    21     3     4   ar
    22     4     5   ar
    23     5     6   ar
    24     6     7    1
    25     6     8   ar
    26     8     9   ar
    27     9    10    1
    28     9    11   ar
    29    11    12   ar
    30    12    13    2
    31    30    31    1
    32    31    32    1
    33    32    33    1
    34    32    25    1
    35    12     1   ar
    36    22    16   ar
    37    11     4   ar
    38    27    34    1
    39    29    35    1
    40    20    23    1
    41     7    14    1
    42    10    15    1
@<TRIPOS>MOLECULE
*****
 39 42 0 0 0
SMALL
GASTEIGER

@<TRIPOS>ATOM
      1 C          62.9862   89.8290   12.2468 C.ar    1  UNL1        0.2144
      2 C          62.9035   90.0789   10.7701 C.ar    1  UNL1        0.1822
      3 O          63.7177   91.1744   10.1481 O.2     1  UNL1       -0.4500
      4 C          64.6147   92.0200   11.0028 C.ar    1  UNL1        0.1545
      5 C          65.4289   93.1155   10.3808 C.ar    1  UNL1        0.0744
      6 C          66.3258   93.9610   11.2355 C.ar    1  UNL1        0.1397
      7 O          67.1400   95.0566   10.6136 O.3     1  UNL1       -0.5053
      8 C          66.4084   93.7111   12.7123 C.ar    1  UNL1        0.0735
      9 C          65.5942   92.6156   13.3343 C.ar    1  UNL1        0.1428
     10 O          65.6769   92.3657   14.8110 O.3     1  UNL1       -0.5052
     11 C          64.6974   91.7701   12.4795 C.ar    1  UNL1        0.1104
     12 C          63.8831   90.6745   13.1015 C.ar    1  UNL1        0.2382
     13 O          63.9658   90.4246   14.5783 O.2     1  UNL1       -0.2830
     14 H          67.0884   95.2128    9.6911 H       1  UNL1        0.2922
     15 H          66.2372   92.8939   15.3449 H       1  UNL1        0.2922
     16 C          62.0066   89.2333    9.9154 C.ar    1  UNL1        0.0379
     17 C          62.4806   87.8983    9.4224 C.ar    1  UNL1        0.0062
     18 C          61.5837   87.0528    8.5677 C.ar    1  UNL1        0.0367
     19 C          60.2127   87.5422    8.2060 C.ar    1  UNL1        0.1337
     20 O          59.3157   86.6966    7.3513 O.3     1  UNL1       -0.5055
     21 C          59.7386   88.8772    8.6990 C.ar    1  UNL1        0.0367
     22 C          60.6356   89.7227    9.5537 C.ar    1  UNL1        0.0062
     23 H          59.6119   85.8626    7.0433 H       1  UNL1        0.2922
     24 O          62.1719   88.7334   12.8688 O.3     1  UNL1       -0.4441
     25 C          63.9290   84.6183   13.3468 C.3     1  UNL1        0.2249
     26 C          62.7269   84.8237   12.4734 C.3     1  UNL1        0.1862
     27 O          62.1106   83.6575   11.7593 O.3     1  UNL1       -0.3784
     28 C          62.1413   86.1954   12.3141 C.3     1  UNL1        0.2117
     29 O          60.9392   86.4009   11.4407 O.3     1  UNL1       -0.3766
     30 C          62.7576   87.3617   13.0281 C.3     1  UNL1        0.3182
     31 O          63.9597   87.1562   13.9016 O.3     1  UNL1       -0.3174
     32 C          64.5454   85.7845   14.0609 C.3     1  UNL1        0.1614
     33 C          65.7474   85.5791   14.9343 C.3     1  UNL1        0.0361
     34 H          62.6070   82.8509   11.9689 H       1  UNL1        0.2106
     35 H          60.6909   87.3386   11.4477 H       1  UNL1        0.2107
     36 O          64.5147   83.2465   13.5061 O.3     1  UNL1       -0.4471
     37 C          63.6730   80.7886   13.5218 C.3     1  UNL1        0.1212
     38 C          63.7054   82.1546   14.1407 C.2     1  UNL1        0.3176
     39 O          62.9287   82.4286   15.3943 O.2     1  UNL1       -0.2501
@<TRIPOS>BOND
     1    37    38    1
     2    38    39    2
     3    38    36    1
     4    25    36    1
     5    25    26    1
     6    26    27    1
     7    26    28    1
     8    28    29    1
     9    28    30    1
    10    30    24    1
    11    24     1    1
    12     1     2   ar
    13     2    16    1
    14    16    17   ar
    15    17    18   ar
    16    18    19   ar
    17    19    20    1
    18    19    21   ar
    19    21    22   ar
    20     2     3   ar
    21     3     4   ar
    22     4     5   ar
    23     5     6   ar
    24     6     7    1
    25     6     8   ar
    26     8     9   ar
    27     9    10    1
    28     9    11   ar
    29    11    12   ar
    30    12    13    2
    31    30    31    1
    32    31    32    1
    33    32    33    1
    34    32    25    1
    35    12     1   ar
    36    22    16   ar
    37    11     4   ar
    38    27    34    1
    39    29    35    1
    40    20    23    1
    41     7    14    1
    42    10    15    1
