@<TRIPOS>MOLECULE
*****
 45 51 0 0 0
SMALL
GASTEIGER

@<TRIPOS>ATOM
      1 N          60.9163   90.1804    7.2071 N.pl3   1  UNL1       -0.2696
      2 C          62.0061   90.6842    8.1063 C.3     1  UNL1        0.1189
      3 C          62.3558   89.9311    9.3555 C.3     1  UNL1        0.1216
      4 N          61.6156   88.6742    9.7056 N.am    1  UNL1       -0.2403
      5 C          61.9653   87.9211   10.9548 C.2     1  UNL1        0.3078
      6 O          61.2251   86.6643   11.3048 O.2     1  UNL1       -0.2522
      7 N          63.0551   88.4249   11.8540 N.am    1  UNL1       -0.2901
      8 C          60.5258   88.1705    8.8064 C.ar    1  UNL1        0.0689
      9 C          59.7857   86.9136    9.1564 C.ar    1  UNL1        0.0162
     10 C          58.6959   86.4099    8.2572 C.ar    1  UNL1        0.0014
     11 C          58.3462   87.1630    7.0080 C.ar    1  UNL1        0.0014
     12 C          59.0863   88.4198    6.6580 C.ar    1  UNL1        0.0161
     13 C          60.1761   88.9236    7.5571 C.ar    1  UNL1        0.0666
     14 H          63.5409   89.2498   11.6242 H       1  UNL1        0.1509
     15 C          63.4048   87.6718   13.1032 C.3     1  UNL1        0.0730
     16 C          63.2432   86.1812   13.1504 C.3     1  UNL1        0.0185
     17 C          63.7545   86.9187   14.3524 C.3     1  UNL1        0.0017
     18 C          64.1041   86.1656   15.6017 C.3     1  UNL1        0.0006
     19 C          64.2657   87.6560   15.5544 C.3     1  UNL1        0.0017
     20 C          63.9161   88.4091   14.3052 C.3     1  UNL1        0.0185
     21 C          63.8198   85.2239   15.1136 C.3     1  UNL1        0.0102
     22 C          63.4313   83.9376   14.4469 C.3     1  UNL1        0.0687
     23 C          63.9425   84.6750   15.6489 C.3     1  UNL1        0.0086
     24 C          63.0816   84.6907   13.1976 C.3     1  UNL1        0.0102
     25 C          63.2697   82.4471   14.4941 C.2     1  UNL1        0.2184
     26 N          61.9471   81.8476   14.8703 N.am    1  UNL1       -0.3288
     27 O          64.4306   81.5560   14.1651 O.2     1  UNL1       -0.2754
     28 H          61.1851   82.4324   15.0862 H       1  UNL1        0.1449
     29 H          61.8411   80.8693   14.9013 H       1  UNL1        0.1449
     30 C          59.8673   92.4397    3.4594 C.ar    1  UNL1        0.0675
     31 C          58.8052   92.1358    4.4741 C.ar    1  UNL1        0.0190
     32 C          59.1548   91.3827    5.7233 C.ar    1  UNL1        0.0359
     33 C          60.5666   90.9335    5.9579 C.ar    1  UNL1        0.1356
     34 N          61.6288   91.2375    4.9432 N.ar    1  UNL1       -0.2276
     35 C          61.2792   91.9906    3.6940 C.ar    1  UNL1        0.1147
     36 N          58.8182   94.6990   -0.2882 N.3     1  UNL1       -0.2723
     37 C          59.6483   95.3548    0.7753 C.3     1  UNL1        0.0937
     38 C          59.9980   94.6017    2.0245 C.3     1  UNL1        0.1082
     39 N          59.5176   93.1928    2.2102 N.pl3   1  UNL1       -0.3034
     40 C          58.6876   92.5371    1.1467 C.3     1  UNL1        0.1082
     41 C          58.3379   93.2902   -0.1025 C.3     1  UNL1        0.0937
     42 C          59.9200   95.7595   -1.7584 C.3     1  UNL1        0.0160
     43 C          58.4686   95.4521   -1.5375 C.3     1  UNL1        0.0456
     44 C          57.0171   95.1448   -1.3165 C.3     1  UNL1        0.0160
     45 C          58.1189   96.2052   -2.7867 C.3     1  UNL1        0.0160
@<TRIPOS>BOND
     1    42    43    1
     2    43    44    1
     3    43    45    1
     4    43    36    1
     5    36    37    1
     6    37    38    1
     7    38    39    1
     8    39    30    1
     9    30    31   ar
    10    31    32   ar
    11    32    33   ar
    12    33     1    1
    13     1     2    1
    14     2     3    1
    15     3     4    1
    16     4     5   am
    17     5     6    2
    18     5     7   am
    19    15     7    1
    20    15    16    1
    21    16    17    1
    22    17    18    1
    23    18    19    1
    24    19    20    1
    25    20    21    1
    26    21    22    1
    27    22    25    1
    28    25    26   am
    29    25    27    2
    30    22    23    1
    31    22    24    1
    32     4     8    1
    33     8     9   ar
    34     9    10   ar
    35    10    11   ar
    36    11    12   ar
    37    12    13   ar
    38    33    34   ar
    39    34    35   ar
    40    39    40    1
    41    40    41    1
    42    41    36    1
    43    35    30   ar
    44    13     1    1
    45    20    15    1
    46    13     8   ar
    47    24    16    1
    48    23    18    1
    49     7    14    1
    50    26    28    1
    51    26    29    1
