@<TRIPOS>MOLECULE
*****
 26 29 0 0 0
SMALL
GASTEIGER

@<TRIPOS>ATOM
      1 C          62.7377   89.9112   10.9830 C.ar    1  UNL1        0.0611
      2 C          62.9325   89.7254   12.4586 C.ar    1  UNL1        0.0318
      3 C          63.8768   90.6175   13.2087 C.ar    1  UNL1        0.0527
      4 C          64.6262   91.6953   12.4830 C.ar    1  UNL1        0.0489
      5 C          65.6165   92.7196   12.9525 C.ar    1  UNL1        0.0249
      6 C          66.0337   93.5384   11.7669 C.ar    1  UNL1        0.1006
      7 N          65.3013   93.0201   10.5648 N.ar    1  UNL1       -0.2269
      8 C          64.4315   91.8811   11.0074 C.ar    1  UNL1        0.1417
      9 N          63.4872   90.9890   10.2573 N.ar    1  UNL1       -0.3384
     10 H          63.3594   91.1109    9.2888 H       1  UNL1        0.1674
     11 F          58.9606   86.3431    7.9826 F       1  UNL1       -0.2041
     12 C          59.9049   87.2351    8.7327 C.ar    1  UNL1        0.1424
     13 C          59.8630   88.7194    8.5201 C.ar    1  UNL1        0.0298
     14 C          60.8073   89.6114    9.2702 C.ar    1  UNL1        0.0060
     15 C          61.7934   89.0191   10.2329 C.ar    1  UNL1        0.0433
     16 C          61.8353   87.5349   10.4454 C.ar    1  UNL1        0.1437
     17 F          62.8215   86.9426   11.4081 F       1  UNL1       -0.2040
     18 C          60.8910   86.6428    9.6953 C.ar    1  UNL1        0.0593
     19 N          64.0715   90.4317   14.6844 N.pl3   1  UNL1       -0.3123
     20 H          64.3419   91.1944   15.2451 H       1  UNL1        0.1522
     21 C          63.8542   89.0839   15.3057 C.ar    1  UNL1        0.0514
     22 C          64.3884   87.8536   14.6341 C.ar    1  UNL1        0.0353
     23 C          64.1711   86.5057   15.2554 C.ar    1  UNL1        0.1002
     24 N          63.4197   86.3881   16.5482 N.ar    1  UNL1       -0.2422
     25 C          62.8855   87.6184   17.2198 C.ar    1  UNL1        0.1002
     26 C          63.1027   88.9663   16.5985 C.ar    1  UNL1        0.0353
@<TRIPOS>BOND
     1    11    12    1
     2    12    13   ar
     3    13    14   ar
     4    14    15   ar
     5    15     1    1
     6     1     2   ar
     7     2     3   ar
     8     3    19    1
     9    19    21    1
    10    21    22   ar
    11    22    23   ar
    12    23    24   ar
    13    24    25   ar
    14    25    26   ar
    15     3     4   ar
    16     4     5   ar
    17     5     6   ar
    18     6     7   ar
    19     7     8   ar
    20     8     9   ar
    21    15    16   ar
    22    16    17    1
    23    16    18   ar
    24    18    12   ar
    25     9     1   ar
    26    26    21   ar
    27     8     4    1
    28    19    20    1
    29     9    10    1
@<TRIPOS>MOLECULE
*****
 26 29 0 0 0
SMALL
GASTEIGER

@<TRIPOS>ATOM
      1 C          62.9604   85.2698   12.8179 C.ar    1  UNL1        0.0611
      2 C          62.4056   85.9806   11.6194 C.ar    1  UNL1        0.0318
      3 C          62.5686   87.4658   11.4860 C.ar    1  UNL1        0.0527
      4 C          63.2866   88.2400   12.5514 C.ar    1  UNL1        0.0489
      5 C          63.5989   89.7003   12.6928 C.ar    1  UNL1        0.0249
      6 C          64.3469   89.8919   13.9789 C.ar    1  UNL1        0.1006
      7 N          64.4968   88.5501   14.6323 N.ar    1  UNL1       -0.2269
      8 C          63.8415   87.5291   13.7501 C.ar    1  UNL1        0.1417
      9 N          63.6784   86.0440   13.8833 N.ar    1  UNL1       -0.3384
     10 H          64.0426   85.5774   14.6700 H       1  UNL1        0.1674
     11 F          62.3082   79.3292   13.3509 F       1  UNL1       -0.2041
     12 C          62.4713   80.8143   13.2177 C.ar    1  UNL1        0.1424
     13 C          62.9780   81.4010   11.9335 C.ar    1  UNL1        0.0298
     14 C          63.1410   82.8861   11.8003 C.ar    1  UNL1        0.0060
     15 C          62.7974   83.7846   12.9512 C.ar    1  UNL1        0.0433
     16 C          62.2907   83.1980   14.2353 C.ar    1  UNL1        0.1437
     17 F          61.9471   84.0964   15.3863 F       1  UNL1       -0.2040
     18 C          62.1276   81.7128   14.3686 C.ar    1  UNL1        0.0593
     19 N          62.0137   88.1767   10.2874 N.pl3   1  UNL1       -0.3123
     20 H          62.1620   89.1436   10.1761 H       1  UNL1        0.1522
     21 C          61.2328   87.4144    9.2583 C.ar    1  UNL1        0.0514
     22 C          61.8806   86.2893    8.5070 C.ar    1  UNL1        0.0353
     23 C          61.0998   85.5269    7.4779 C.ar    1  UNL1        0.1002
     24 N          59.6711   85.8897    7.2001 N.ar    1  UNL1       -0.2422
     25 C          59.0232   87.0148    7.9514 C.ar    1  UNL1        0.1002
     26 C          59.8041   87.7772    8.9805 C.ar    1  UNL1        0.0353
@<TRIPOS>BOND
     1    11    12    1
     2    12    13   ar
     3    13    14   ar
     4    14    15   ar
     5    15     1    1
     6     1     2   ar
     7     2     3   ar
     8     3    19    1
     9    19    21    1
    10    21    22   ar
    11    22    23   ar
    12    23    24   ar
    13    24    25   ar
    14    25    26   ar
    15     3     4   ar
    16     4     5   ar
    17     5     6   ar
    18     6     7   ar
    19     7     8   ar
    20     8     9   ar
    21    15    16   ar
    22    16    17    1
    23    16    18   ar
    24    18    12   ar
    25     9     1   ar
    26    26    21   ar
    27     8     4    1
    28    19    20    1
    29     9    10    1
@<TRIPOS>MOLECULE
*****
 26 29 0 0 0
SMALL
GASTEIGER

@<TRIPOS>ATOM
      1 C          62.7415   89.5374   10.8862 C.ar    1  UNL1        0.0611
      2 C          63.2163   90.8549   10.3493 C.ar    1  UNL1        0.0318
      3 C          64.0632   91.7515   11.2033 C.ar    1  UNL1        0.0527
      4 C          64.4351   91.3303   12.5940 C.ar    1  UNL1        0.0489
      5 C          65.2511   91.9986   13.6606 C.ar    1  UNL1        0.0249
      6 C          65.2805   91.0938   14.8567 C.ar    1  UNL1        0.1006
      7 N          64.4827   89.8665   14.5293 N.ar    1  UNL1       -0.2269
      8 C          63.9602   90.0127   13.1309 C.ar    1  UNL1        0.1417
      9 N          63.1134   89.1162   12.2770 N.ar    1  UNL1       -0.3384
     10 H          62.8017   88.2513   12.6293 H       1  UNL1        0.1674
     11 F          59.3543   85.9510    7.4707 F       1  UNL1       -0.2041
     12 C          60.2011   86.8476    8.3245 C.ar    1  UNL1        0.1424
     13 C          61.5496   86.3848    8.7907 C.ar    1  UNL1        0.0298
     14 C          62.3964   87.2814    9.6446 C.ar    1  UNL1        0.0060
     15 C          61.8946   88.6408   10.0323 C.ar    1  UNL1        0.0433
     16 C          60.5462   89.1036    9.5661 C.ar    1  UNL1        0.1437
     17 F          60.0444   90.4629    9.9538 F       1  UNL1       -0.2040
     18 C          59.6993   88.2070    8.7122 C.ar    1  UNL1        0.0593
     19 N          64.5380   93.0692   10.6663 N.pl3   1  UNL1       -0.3123
     20 H          63.9055   93.8171   10.5671 H       1  UNL1        0.1522
     21 C          65.9766   93.2474   10.2806 C.ar    1  UNL1        0.0514
     22 C          66.4391   94.5460    9.6891 C.ar    1  UNL1        0.0353
     23 C          67.8776   94.7243    9.3034 C.ar    1  UNL1        0.1002
     24 N          68.8536   93.6040    9.5092 N.ar    1  UNL1       -0.2422
     25 C          68.3912   92.3055   10.1007 C.ar    1  UNL1        0.1002
     26 C          66.9526   92.1272   10.4864 C.ar    1  UNL1        0.0353
@<TRIPOS>BOND
     1    11    12    1
     2    12    13   ar
     3    13    14   ar
     4    14    15   ar
     5    15     1    1
     6     1     2   ar
     7     2     3   ar
     8     3    19    1
     9    19    21    1
    10    21    22   ar
    11    22    23   ar
    12    23    24   ar
    13    24    25   ar
    14    25    26   ar
    15     3     4   ar
    16     4     5   ar
    17     5     6   ar
    18     6     7   ar
    19     7     8   ar
    20     8     9   ar
    21    15    16   ar
    22    16    17    1
    23    16    18   ar
    24    18    12   ar
    25     9     1   ar
    26    26    21   ar
    27     8     4    1
    28    19    20    1
    29     9    10    1
@<TRIPOS>MOLECULE
*****
 26 29 0 0 0
SMALL
GASTEIGER

@<TRIPOS>ATOM
      1 C          62.5737   89.7404   10.7883 C.ar    1  UNL1        0.0611
      2 C          62.4604   88.3881   11.4273 C.ar    1  UNL1        0.0318
      3 C          61.4940   87.3791   10.8814 C.ar    1  UNL1        0.0527
      4 C          60.6409   87.7225    9.6964 C.ar    1  UNL1        0.0489
      5 C          59.6068   86.9391    8.9435 C.ar    1  UNL1        0.0249
      6 C          59.0809   87.8073    7.8391 C.ar    1  UNL1        0.1006
      7 N          59.7900   89.1273    7.9095 N.ar    1  UNL1       -0.2269
      8 C          60.7541   89.0748    9.0574 C.ar    1  UNL1        0.1417
      9 N          61.7205   90.0838    9.6034 N.ar    1  UNL1       -0.3384
     10 H          61.7949   90.9714    9.1840 H       1  UNL1        0.1674
     11 F          66.4393   93.7764   12.9718 F       1  UNL1       -0.2041
     12 C          65.4729   92.7674   12.4260 C.ar    1  UNL1        0.1424
     13 C          65.1486   92.7553   10.9615 C.ar    1  UNL1        0.0298
     14 C          64.1822   91.7463   10.4156 C.ar    1  UNL1        0.0060
     15 C          63.5401   90.7494   11.3343 C.ar    1  UNL1        0.0433
     16 C          63.8643   90.7615   12.7987 C.ar    1  UNL1        0.1437
     17 F          63.2222   89.7647   13.7173 F       1  UNL1       -0.2040
     18 C          64.8308   91.7705   13.3446 C.ar    1  UNL1        0.0593
     19 N          61.3808   86.0267   11.5205 N.pl3   1  UNL1       -0.3123
     20 H          60.5871   85.8009   12.0574 H       1  UNL1        0.1522
     21 C          62.4769   85.0185   11.3416 C.ar    1  UNL1        0.0514
     22 C          63.1302   84.4000   12.5418 C.ar    1  UNL1        0.0353
     23 C          64.2263   83.3918   12.3630 C.ar    1  UNL1        0.1002
     24 N          64.6691   83.0021   10.9839 N.ar    1  UNL1       -0.2422
     25 C          64.0159   83.6206    9.7836 C.ar    1  UNL1        0.1002
     26 C          62.9197   84.6288    9.9624 C.ar    1  UNL1        0.0353
@<TRIPOS>BOND
     1    11    12    1
     2    12    13   ar
     3    13    14   ar
     4    14    15   ar
     5    15     1    1
     6     1     2   ar
     7     2     3   ar
     8     3    19    1
     9    19    21    1
    10    21    22   ar
    11    22    23   ar
    12    23    24   ar
    13    24    25   ar
    14    25    26   ar
    15     3     4   ar
    16     4     5   ar
    17     5     6   ar
    18     6     7   ar
    19     7     8   ar
    20     8     9   ar
    21    15    16   ar
    22    16    17    1
    23    16    18   ar
    24    18    12   ar
    25     9     1   ar
    26    26    21   ar
    27     8     4    1
    28    19    20    1
    29     9    10    1
@<TRIPOS>MOLECULE
*****
 26 29 0 0 0
SMALL
GASTEIGER

@<TRIPOS>ATOM
      1 C          62.9350   89.9586   11.0295 C.ar    1  UNL1        0.0611
      2 C          63.0608   89.7476   12.5091 C.ar    1  UNL1        0.0318
      3 C          63.9910   90.6071   13.3130 C.ar    1  UNL1        0.0527
      4 C          64.7954   91.6776   12.6370 C.ar    1  UNL1        0.0489
      5 C          65.7867   92.6721   13.1644 C.ar    1  UNL1        0.0249
      6 C          66.2736   93.4977   12.0106 C.ar    1  UNL1        0.1006
      7 N          65.5832   93.0135   10.7701 N.ar    1  UNL1       -0.2269
      8 C          64.6696   91.8885   11.1572 C.ar    1  UNL1        0.1417
      9 N          63.7394   91.0291   10.3535 N.ar    1  UNL1       -0.3384
     10 H          63.6568   91.1676    9.3823 H       1  UNL1        0.1674
     11 F          59.2144   86.5206    7.8142 F       1  UNL1       -0.2041
     12 C          60.1445   87.3801    8.6180 C.ar    1  UNL1        0.1424
     13 C          61.5098   86.8742    8.9788 C.ar    1  UNL1        0.0298
     14 C          62.4399   87.7337    9.7826 C.ar    1  UNL1        0.0060
     15 C          62.0048   89.0991   10.2256 C.ar    1  UNL1        0.0433
     16 C          60.6396   89.6050    9.8649 C.ar    1  UNL1        0.1437
     17 F          60.2045   90.9704   10.3080 F       1  UNL1       -0.2040
     18 C          59.7094   88.7455    9.0611 C.ar    1  UNL1        0.0593
     19 N          64.1167   90.3960   14.7928 N.pl3   1  UNL1       -0.3123
     20 H          64.3489   91.1515   15.3798 H       1  UNL1        0.1522
     21 C          63.8887   89.0339   15.3781 C.ar    1  UNL1        0.0514
     22 C          63.0513   88.8789   16.6129 C.ar    1  UNL1        0.0353
     23 C          62.8232   87.5168   17.1983 C.ar    1  UNL1        0.1002
     24 N          63.4326   86.3098   16.5490 N.ar    1  UNL1       -0.2422
     25 C          64.2701   86.4648   15.3142 C.ar    1  UNL1        0.1002
     26 C          64.4981   87.8269   14.7288 C.ar    1  UNL1        0.0353
@<TRIPOS>BOND
     1    11    12    1
     2    12    13   ar
     3    13    14   ar
     4    14    15   ar
     5    15     1    1
     6     1     2   ar
     7     2     3   ar
     8     3    19    1
     9    19    21    1
    10    21    22   ar
    11    22    23   ar
    12    23    24   ar
    13    24    25   ar
    14    25    26   ar
    15     3     4   ar
    16     4     5   ar
    17     5     6   ar
    18     6     7   ar
    19     7     8   ar
    20     8     9   ar
    21    15    16   ar
    22    16    17    1
    23    16    18   ar
    24    18    12   ar
    25     9     1   ar
    26    26    21   ar
    27     8     4    1
    28    19    20    1
    29     9    10    1
@<TRIPOS>MOLECULE
*****
 26 29 0 0 0
SMALL
GASTEIGER

@<TRIPOS>ATOM
      1 C          62.0197   85.9874   10.6808 C.ar    1  UNL1        0.0611
      2 C          62.0449   87.3132   11.3817 C.ar    1  UNL1        0.0318
      3 C          61.3505   88.4961   10.7743 C.ar    1  UNL1        0.0527
      4 C          60.6309   88.3529    9.4660 C.ar    1  UNL1        0.0489
      5 C          59.8623   89.3335    8.6307 C.ar    1  UNL1        0.0249
      6 C          59.3621   88.6136    7.4136 C.ar    1  UNL1        0.1006
      7 N          59.8215   87.1881    7.4966 N.ar    1  UNL1       -0.2269
      8 C          60.6057   87.0270    8.7651 C.ar    1  UNL1        0.1417
      9 N          61.3001   85.8442    9.3725 N.ar    1  UNL1       -0.3384
     10 H          61.2835   84.9740    8.9125 H       1  UNL1        0.1674
     11 F          64.7971   81.2563   13.1103 F       1  UNL1       -0.2041
     12 C          64.1027   82.4390   12.5029 C.ar    1  UNL1        0.1424
     13 C          63.3238   83.3800   13.3735 C.ar    1  UNL1        0.0298
     14 C          62.6294   84.5627   12.7661 C.ar    1  UNL1        0.0060
     15 C          62.7141   84.8046   11.2881 C.ar    1  UNL1        0.0433
     16 C          63.4930   83.8637   10.4176 C.ar    1  UNL1        0.1437
     17 F          63.5776   84.1055    8.9397 F       1  UNL1       -0.2040
     18 C          64.1874   82.6808   11.0250 C.ar    1  UNL1        0.0593
     19 N          61.3758   89.8220   11.4753 N.pl3   1  UNL1       -0.3123
     20 H          60.5437   90.2028   11.8383 H       1  UNL1        0.1522
     21 C          62.6689   90.5677   11.6231 C.ar    1  UNL1        0.0514
     22 C          63.2519   91.2978   10.4496 C.ar    1  UNL1        0.0353
     23 C          64.5450   92.0435   10.5973 C.ar    1  UNL1        0.1002
     24 N          65.2550   92.0591   11.9185 N.ar    1  UNL1       -0.2422
     25 C          64.6720   91.3291   13.0920 C.ar    1  UNL1        0.1002
     26 C          63.3789   90.5833   12.9443 C.ar    1  UNL1        0.0353
@<TRIPOS>BOND
     1    11    12    1
     2    12    13   ar
     3    13    14   ar
     4    14    15   ar
     5    15     1    1
     6     1     2   ar
     7     2     3   ar
     8     3    19    1
     9    19    21    1
    10    21    22   ar
    11    22    23   ar
    12    23    24   ar
    13    24    25   ar
    14    25    26   ar
    15     3     4   ar
    16     4     5   ar
    17     5     6   ar
    18     6     7   ar
    19     7     8   ar
    20     8     9   ar
    21    15    16   ar
    22    16    17    1
    23    16    18   ar
    24    18    12   ar
    25     9     1   ar
    26    26    21   ar
    27     8     4    1
    28    19    20    1
    29     9    10    1
@<TRIPOS>MOLECULE
*****
 26 29 0 0 0
SMALL
GASTEIGER

@<TRIPOS>ATOM
      1 C          62.6103   88.3451   11.5390 C.ar    1  UNL1        0.0611
      2 C          63.1269   87.4567   12.6315 C.ar    1  UNL1        0.0318
      3 C          63.9588   88.0346   13.7379 C.ar    1  UNL1        0.0527
      4 C          64.2740   89.5010   13.7516 C.ar    1  UNL1        0.0489
      5 C          65.0635   90.3489   14.7043 C.ar    1  UNL1        0.0249
      6 C          65.0349   91.7615   14.2005 C.ar    1  UNL1        0.1006
      7 N          64.2277   91.7866   12.9365 N.ar    1  UNL1       -0.2269
      8 C          63.7574   90.3895   12.6591 C.ar    1  UNL1        0.1417
      9 N          62.9256   89.8115   11.5527 N.ar    1  UNL1       -0.3384
     10 H          62.5865   90.3947   10.8356 H       1  UNL1        0.1674
     11 F          59.2830   86.0335    7.1134 F       1  UNL1       -0.2041
     12 C          60.1148   86.6114    8.2198 C.ar    1  UNL1        0.1424
     13 C          61.4940   86.0807    8.4769 C.ar    1  UNL1        0.0298
     14 C          62.3258   86.6586    9.5833 C.ar    1  UNL1        0.0060
     15 C          61.7784   87.7672   10.4325 C.ar    1  UNL1        0.0433
     16 C          60.3993   88.2979   10.1755 C.ar    1  UNL1        0.1437
     17 F          59.8519   89.4065   11.0248 F       1  UNL1       -0.2040
     18 C          59.5674   87.7200    9.0691 C.ar    1  UNL1        0.0593
     19 N          64.4754   87.1460   14.8304 N.pl3   1  UNL1       -0.3123
     20 H          65.0774   87.5111   15.5186 H       1  UNL1        0.1522
     21 C          64.0746   85.7012   14.8746 C.ar    1  UNL1        0.0514
     22 C          64.8317   84.6880   14.0681 C.ar    1  UNL1        0.0353
     23 C          64.4311   83.2432   14.1122 C.ar    1  UNL1        0.1002
     24 N          63.2734   82.8116   14.9627 N.ar    1  UNL1       -0.2422
     25 C          62.5163   83.8247   15.7691 C.ar    1  UNL1        0.1002
     26 C          62.9169   85.2696   15.7251 C.ar    1  UNL1        0.0353
@<TRIPOS>BOND
     1    11    12    1
     2    12    13   ar
     3    13    14   ar
     4    14    15   ar
     5    15     1    1
     6     1     2   ar
     7     2     3   ar
     8     3    19    1
     9    19    21    1
    10    21    22   ar
    11    22    23   ar
    12    23    24   ar
    13    24    25   ar
    14    25    26   ar
    15     3     4   ar
    16     4     5   ar
    17     5     6   ar
    18     6     7   ar
    19     7     8   ar
    20     8     9   ar
    21    15    16   ar
    22    16    17    1
    23    16    18   ar
    24    18    12   ar
    25     9     1   ar
    26    26    21   ar
    27     8     4    1
    28    19    20    1
    29     9    10    1
@<TRIPOS>MOLECULE
*****
 26 29 0 0 0
SMALL
GASTEIGER

@<TRIPOS>ATOM
      1 C          62.1007   86.5707   11.1622 C.ar    1  UNL1        0.0611
      2 C          62.4563   88.0271   11.1139 C.ar    1  UNL1        0.0318
      3 C          61.7936   88.9282   10.1144 C.ar    1  UNL1        0.0527
      4 C          60.7754   88.3728    9.1632 C.ar    1  UNL1        0.0489
      5 C          59.9623   89.0128    8.0772 C.ar    1  UNL1        0.0249
      6 C          59.1043   87.9518    7.4543 C.ar    1  UNL1        0.1006
      7 N          59.3870   86.6562    8.1554 N.ar    1  UNL1       -0.2269
      8 C          60.4198   86.9164    9.2115 C.ar    1  UNL1        0.1417
      9 N          61.0825   86.0153   10.2110 N.ar    1  UNL1       -0.3384
     10 H          60.8491   85.0594   10.2427 H       1  UNL1        0.1674
     11 F          64.7512   82.9660   15.1599 F       1  UNL1       -0.2041
     12 C          64.0886   83.8672   14.1605 C.ar    1  UNL1        0.1424
     13 C          63.2262   83.2839   13.0806 C.ar    1  UNL1        0.0298
     14 C          62.5636   84.1851   12.0812 C.ar    1  UNL1        0.0060
     15 C          62.7634   85.6696   12.1617 C.ar    1  UNL1        0.0433
     16 C          63.6257   86.2528   13.2415 C.ar    1  UNL1        0.1437
     17 F          63.8254   87.7373   13.3219 F       1  UNL1       -0.2040
     18 C          64.2883   85.3517   14.2410 C.ar    1  UNL1        0.0593
     19 N          62.1492   90.3847   10.0662 N.pl3   1  UNL1       -0.3123
     20 H          61.7419   90.9686    9.3863 H       1  UNL1        0.1522
     21 C          63.1255   90.9515   11.0539 C.ar    1  UNL1        0.0514
     22 C          62.9796   90.6423   12.5144 C.ar    1  UNL1        0.0353
     23 C          63.9558   91.2090   13.5022 C.ar    1  UNL1        0.1002
     24 N          65.0780   92.0849   13.0295 N.ar    1  UNL1       -0.2422
     25 C          65.2240   92.3941   11.5690 C.ar    1  UNL1        0.1002
     26 C          64.2477   91.8274   10.5812 C.ar    1  UNL1        0.0353
@<TRIPOS>BOND
     1    11    12    1
     2    12    13   ar
     3    13    14   ar
     4    14    15   ar
     5    15     1    1
     6     1     2   ar
     7     2     3   ar
     8     3    19    1
     9    19    21    1
    10    21    22   ar
    11    22    23   ar
    12    23    24   ar
    13    24    25   ar
    14    25    26   ar
    15     3     4   ar
    16     4     5   ar
    17     5     6   ar
    18     6     7   ar
    19     7     8   ar
    20     8     9   ar
    21    15    16   ar
    22    16    17    1
    23    16    18   ar
    24    18    12   ar
    25     9     1   ar
    26    26    21   ar
    27     8     4    1
    28    19    20    1
    29     9    10    1
@<TRIPOS>MOLECULE
*****
 26 29 0 0 0
SMALL
GASTEIGER

@<TRIPOS>ATOM
      1 C          62.6514   88.7565   11.4333 C.ar    1  UNL1        0.0611
      2 C          62.8527   87.2704   11.4584 C.ar    1  UNL1        0.0318
      3 C          62.0550   86.3899   10.5426 C.ar    1  UNL1        0.0527
      4 C          61.0561   86.9957    9.6018 C.ar    1  UNL1        0.0489
      5 C          60.1318   86.3856    8.5901 C.ar    1  UNL1        0.0249
      6 C          59.3593   87.4948    7.9398 C.ar    1  UNL1        0.1006
      7 N          59.8062   88.7904    8.5496 N.ar    1  UNL1       -0.2269
      8 C          60.8549   88.4820    9.5768 C.ar    1  UNL1        0.1417
      9 N          61.6525   89.3624   10.4925 N.ar    1  UNL1       -0.3384
     10 H          61.5204   90.3378   10.4761 H       1  UNL1        0.1674
     11 F          65.8419   92.2783   15.0964 F       1  UNL1       -0.2041
     12 C          65.0443   91.3979   14.1806 C.ar    1  UNL1        0.1424
     13 C          64.6356   90.0255   14.6275 C.ar    1  UNL1        0.0298
     14 C          63.8380   89.1451   13.7117 C.ar    1  UNL1        0.0060
     15 C          63.4491   89.6371   12.3491 C.ar    1  UNL1        0.0433
     16 C          63.8577   91.0093   11.9022 C.ar    1  UNL1        0.1437
     17 F          63.4688   91.5012   10.5396 F       1  UNL1       -0.2040
     18 C          64.6554   91.8898   12.8180 C.ar    1  UNL1        0.0593
     19 N          62.2564   84.9037   10.5677 N.pl3   1  UNL1       -0.3123
     20 H          62.1356   84.3766    9.7450 H       1  UNL1        0.1522
     21 C          62.6417   84.2205   11.8463 C.ar    1  UNL1        0.0514
     22 C          62.6380   82.7227   11.9269 C.ar    1  UNL1        0.0353
     23 C          63.0233   82.0394   13.2054 C.ar    1  UNL1        0.1002
     24 N          63.4123   82.8540   14.4034 N.ar    1  UNL1       -0.2422
     25 C          63.4160   84.3519   14.3228 C.ar    1  UNL1        0.1002
     26 C          63.0307   85.0351   13.0442 C.ar    1  UNL1        0.0353
@<TRIPOS>BOND
     1    11    12    1
     2    12    13   ar
     3    13    14   ar
     4    14    15   ar
     5    15     1    1
     6     1     2   ar
     7     2     3   ar
     8     3    19    1
     9    19    21    1
    10    21    22   ar
    11    22    23   ar
    12    23    24   ar
    13    24    25   ar
    14    25    26   ar
    15     3     4   ar
    16     4     5   ar
    17     5     6   ar
    18     6     7   ar
    19     7     8   ar
    20     8     9   ar
    21    15    16   ar
    22    16    17    1
    23    16    18   ar
    24    18    12   ar
    25     9     1   ar
    26    26    21   ar
    27     8     4    1
    28    19    20    1
    29     9    10    1
