@<TRIPOS>MOLECULE
*****
 29 32 0 0 0
SMALL
GASTEIGER

@<TRIPOS>ATOM
      1 C          62.5576   90.3814   11.3774 C.3     1  UNL1        0.1025
      2 C          62.9480   91.1006   10.1203 C.3     1  UNL1        0.0259
      3 C          64.0898   92.0732   10.1364 C.3     1  UNL1        0.0450
      4 C          64.8413   92.3266   11.4096 C.ar    1  UNL1        0.0350
      5 C          66.0015   93.2220   11.7292 C.ar    1  UNL1        0.0141
      6 C          66.3282   93.0562   13.1837 C.ar    1  UNL1        0.0945
      7 N          67.3745   93.6849   14.0554 N.ar    1  UNL1       -0.2427
      8 C          67.4625   93.3157   15.5066 C.ar    1  UNL1        0.0989
      9 C          66.5042   92.3178   16.0861 C.ar    1  UNL1        0.0222
     10 C          65.4579   91.6891   15.2144 C.ar    1  UNL1        0.0203
     11 C          65.3699   92.0582   13.7632 C.ar    1  UNL1        0.0773
     12 N          64.4509   91.6074   12.6668 N.ar    1  UNL1       -0.3283
     13 C          63.3091   90.6348   12.6506 C.3     1  UNL1        0.1234
     14 C          60.3271   89.5132   12.3879 C.3     1  UNL1        0.1149
     15 N          61.4158   89.4088   11.3613 N.3     1  UNL1       -0.1535
     16 S          61.3627   88.3318   10.3186 S.O2    1  UNL1        0.0633
     17 O          60.3181   89.1065    9.5714 O.2     1  UNL1       -0.1528
     18 O          62.4074   87.5570   11.0658 O.2     1  UNL1       -0.1528
     19 C          61.3097   87.2547    9.2758 C.ar    1  UNL1        0.1223
     20 C          62.5216   86.4134    9.0043 C.ar    1  UNL1        0.0222
     21 C          62.4686   85.3364    7.9616 C.ar    1  UNL1        0.0310
     22 C          61.2038   85.1007    7.1905 C.ar    1  UNL1        0.1402
     23 F          61.1508   84.0237    6.1478 F       1  UNL1       -0.2042
     24 C          59.9920   85.9420    7.4620 C.ar    1  UNL1        0.0310
     25 C          60.0449   87.0190    8.5047 C.ar    1  UNL1        0.0222
     26 C          66.7106   94.1248   10.7637 C.3     1  UNL1        0.0707
     27 C          67.6919   93.5525    9.7841 C.2     1  UNL1        0.0548
     28 O          68.6120   92.4450   10.2044 O.co2   1  UNL1       -0.5488
     29 O          67.7532   94.0879    8.3842 O.co2   1  UNL1       -0.5488
@<TRIPOS>UNITY_ATOM_ATTR
28 1
charge -1
@<TRIPOS>BOND
     1    14    15    1
     2     1    15    1
     3     1     2    1
     4     2     3    1
     5     3     4    1
     6     4     5   ar
     7     5    26    1
     8    26    27    1
     9    27    28   ar
    10    27    29   ar
    11     5     6   ar
    12     6     7   ar
    13     7     8   ar
    14     8     9   ar
    15     9    10   ar
    16    10    11   ar
    17    11    12   ar
    18    12    13    1
    19    15    16    1
    20    16    17    2
    21    16    18    2
    22    16    19    1
    23    19    20   ar
    24    20    21   ar
    25    21    22   ar
    26    22    23    1
    27    22    24   ar
    28    24    25   ar
    29    13     1    1
    30    25    19   ar
    31    12     4   ar
    32    11     6   ar
@<TRIPOS>MOLECULE
*****
 29 32 0 0 0
SMALL
GASTEIGER

@<TRIPOS>ATOM
      1 C          62.5140   89.7029   11.3684 C.3     1  UNL1        0.1025
      2 C          62.6901   90.4580   10.0844 C.3     1  UNL1        0.0259
      3 C          63.6626   91.5977   10.0120 C.3     1  UNL1        0.0450
      4 C          64.4590   91.9823   11.2235 C.ar    1  UNL1        0.0350
      5 C          65.4847   93.0526   11.4523 C.ar    1  UNL1        0.0141
      6 C          65.9425   92.9589   12.8776 C.ar    1  UNL1        0.0945
      7 N          66.9398   93.7552   13.6659 N.ar    1  UNL1       -0.2427
      8 C          67.1943   93.4233   15.1063 C.ar    1  UNL1        0.0989
      9 C          66.4515   92.2950   15.7585 C.ar    1  UNL1        0.0222
     10 C          65.4543   91.4988   14.9703 C.ar    1  UNL1        0.0203
     11 C          65.1998   91.8307   13.5298 C.ar    1  UNL1        0.0773
     12 N          64.2829   91.2271   12.5076 N.ar    1  UNL1       -0.3283
     13 C          63.3104   90.0874   12.5800 C.3     1  UNL1        0.1234
     14 C          60.0997   88.8265   11.7602 C.3     1  UNL1        0.1149
     15 N          61.5414   88.5631   11.4409 N.3     1  UNL1       -0.1535
     16 S          62.0108   87.1600   11.1941 S.O2    1  UNL1        0.0633
     17 O          62.9578   87.2730   12.3518 O.2     1  UNL1       -0.1528
     18 O          61.0638   87.0469   10.0363 O.2     1  UNL1       -0.1528
     19 C          62.4801   85.7568   10.9472 C.ar    1  UNL1        0.1223
     20 C          62.5101   84.7668   12.0738 C.ar    1  UNL1        0.0222
     21 C          62.9794   83.3636   11.8269 C.ar    1  UNL1        0.0310
     22 C          63.4187   82.9506   10.4534 C.ar    1  UNL1        0.1402
     23 F          63.8880   81.5474   10.2065 F       1  UNL1       -0.2042
     24 C          63.3888   83.9406    9.3269 C.ar    1  UNL1        0.0310
     25 C          62.9195   85.3436    9.5738 C.ar    1  UNL1        0.0222
     26 C          65.9678   94.0428   10.4343 C.3     1  UNL1        0.0707
     27 C          67.2421   93.7872    9.6853 C.2     1  UNL1        0.0548
     28 O          67.5131   94.5084    8.3983 O.co2   1  UNL1       -0.5488
     29 O          68.2454   92.8105   10.2234 O.co2   1  UNL1       -0.5488
@<TRIPOS>UNITY_ATOM_ATTR
28 1
charge -1
@<TRIPOS>BOND
     1    14    15    1
     2     1    15    1
     3     1     2    1
     4     2     3    1
     5     3     4    1
     6     4     5   ar
     7     5    26    1
     8    26    27    1
     9    27    28   ar
    10    27    29   ar
    11     5     6   ar
    12     6     7   ar
    13     7     8   ar
    14     8     9   ar
    15     9    10   ar
    16    10    11   ar
    17    11    12   ar
    18    12    13    1
    19    15    16    1
    20    16    17    2
    21    16    18    2
    22    16    19    1
    23    19    20   ar
    24    20    21   ar
    25    21    22   ar
    26    22    23    1
    27    22    24   ar
    28    24    25   ar
    29    13     1    1
    30    25    19   ar
    31    12     4   ar
    32    11     6   ar
@<TRIPOS>MOLECULE
*****
 29 32 0 0 0
SMALL
GASTEIGER

@<TRIPOS>ATOM
      1 C          62.1410   89.6839   12.2306 C.3     1  UNL1        0.1025
      2 C          62.6761   89.2396   13.5596 C.3     1  UNL1        0.0259
      3 C          63.9135   89.8753   14.1203 C.3     1  UNL1        0.0450
      4 C          64.6158   90.9555   13.3522 C.ar    1  UNL1        0.0350
      5 C          65.8463   91.7604   13.6489 C.ar    1  UNL1        0.0141
      6 C          66.0717   92.7022   12.5034 C.ar    1  UNL1        0.0945
      7 N          67.1295   93.7339   12.2454 N.ar    1  UNL1       -0.2427
      8 C          67.0961   94.5427   10.9827 C.ar    1  UNL1        0.0989
      9 C          66.0049   94.3199    9.9779 C.ar    1  UNL1        0.0222
     10 C          64.9471   93.2882   10.2359 C.ar    1  UNL1        0.0203
     11 C          64.9804   92.4794   11.4986 C.ar    1  UNL1        0.0773
     12 N          64.0807   91.3999   12.0232 N.ar    1  UNL1       -0.3283
     13 C          62.8433   90.7641   11.4624 C.3     1  UNL1        0.1234
     14 C          59.5590   89.3948   12.2373 C.3     1  UNL1        0.1149
     15 N          60.9035   89.0482   11.6697 N.3     1  UNL1       -0.1535
     16 S          61.0106   88.0657   10.5413 S.O2    1  UNL1        0.0633
     17 O          60.7487   89.1671    9.5574 O.2     1  UNL1       -0.1528
     18 O          61.2725   86.9642   11.5253 O.2     1  UNL1       -0.1528
     19 C          61.1178   87.0832    9.4129 C.ar    1  UNL1        0.1223
     20 C          59.9371   86.8321    8.5224 C.ar    1  UNL1        0.0222
     21 C          60.0443   85.8496    7.3940 C.ar    1  UNL1        0.0310
     22 C          61.3321   85.1183    7.1562 C.ar    1  UNL1        0.1402
     23 F          61.4393   84.1357    6.0279 F       1  UNL1       -0.2042
     24 C          62.5128   85.3694    8.0468 C.ar    1  UNL1        0.0310
     25 C          62.4056   86.3518    9.1751 C.ar    1  UNL1        0.0222
     26 C          66.7014   91.6439   14.8759 C.3     1  UNL1        0.0707
     27 C          66.6167   92.6868   15.9508 C.2     1  UNL1        0.0548
     28 O          65.4416   92.7095   16.8828 O.co2   1  UNL1       -0.5488
     29 O          67.7071   93.7069   16.0937 O.co2   1  UNL1       -0.5488
@<TRIPOS>UNITY_ATOM_ATTR
28 1
charge -1
@<TRIPOS>BOND
     1    14    15    1
     2     1    15    1
     3     1     2    1
     4     2     3    1
     5     3     4    1
     6     4     5   ar
     7     5    26    1
     8    26    27    1
     9    27    28   ar
    10    27    29   ar
    11     5     6   ar
    12     6     7   ar
    13     7     8   ar
    14     8     9   ar
    15     9    10   ar
    16    10    11   ar
    17    11    12   ar
    18    12    13    1
    19    15    16    1
    20    16    17    2
    21    16    18    2
    22    16    19    1
    23    19    20   ar
    24    20    21   ar
    25    21    22   ar
    26    22    23    1
    27    22    24   ar
    28    24    25   ar
    29    13     1    1
    30    25    19   ar
    31    12     4   ar
    32    11     6   ar
@<TRIPOS>MOLECULE
*****
 29 32 0 0 0
SMALL
GASTEIGER

@<TRIPOS>ATOM
      1 C          62.1375   89.8436   11.3253 C.3     1  UNL1        0.1025
      2 C          62.8106   90.5336   10.1760 C.3     1  UNL1        0.0259
      3 C          63.9383   91.4892   10.4313 C.3     1  UNL1        0.0450
      4 C          64.3929   91.7547   11.8359 C.ar    1  UNL1        0.0350
      5 C          65.4697   92.6384   12.3923 C.ar    1  UNL1        0.0141
      6 C          65.4621   92.4946   13.8853 C.ar    1  UNL1        0.0945
      7 N          66.3003   93.1236   14.9585 N.ar    1  UNL1       -0.2427
      8 C          66.0569   92.7800   16.3982 C.ar    1  UNL1        0.0989
      9 C          64.9754   91.8073   16.7646 C.ar    1  UNL1        0.0222
     10 C          64.1373   91.1783   15.6915 C.ar    1  UNL1        0.0203
     11 C          64.3806   91.5219   14.2518 C.ar    1  UNL1        0.0773
     12 N          63.7198   91.0647   12.9852 N.ar    1  UNL1       -0.3283
     13 C          62.5921   90.1091   12.7299 C.3     1  UNL1        0.1234
     14 C          59.7511   88.9794   11.8808 C.3     1  UNL1        0.1149
     15 N          61.0098   88.8879   11.0700 N.3     1  UNL1       -0.1535
     16 S          61.1409   87.8409   10.0039 S.O2    1  UNL1        0.0633
     17 O          62.4238   87.3711   10.6228 O.2     1  UNL1       -0.1528
     18 O          59.8579   88.3107    9.3849 O.2     1  UNL1       -0.1528
     19 C          61.2719   86.7939    8.9377 C.ar    1  UNL1        0.1223
     20 C          60.1428   86.5535    7.9799 C.ar    1  UNL1        0.0222
     21 C          60.2738   85.5065    6.9137 C.ar    1  UNL1        0.0310
     22 C          61.5339   84.7000    6.8055 C.ar    1  UNL1        0.1402
     23 F          61.6649   83.6530    5.7393 F       1  UNL1       -0.2042
     24 C          62.6630   84.9405    7.7633 C.ar    1  UNL1        0.0310
     25 C          62.5320   85.9874    8.8294 C.ar    1  UNL1        0.0222
     26 C          66.3921   93.5126   11.5954 C.3     1  UNL1        0.0707
     27 C          66.0031   94.9279   11.2858 C.2     1  UNL1        0.0548
     28 O          66.1537   95.9929   12.3313 O.co2   1  UNL1       -0.5488
     29 O          65.4636   95.2781    9.9307 O.co2   1  UNL1       -0.5488
@<TRIPOS>UNITY_ATOM_ATTR
28 1
charge -1
@<TRIPOS>BOND
     1    14    15    1
     2     1    15    1
     3     1     2    1
     4     2     3    1
     5     3     4    1
     6     4     5   ar
     7     5    26    1
     8    26    27    1
     9    27    28   ar
    10    27    29   ar
    11     5     6   ar
    12     6     7   ar
    13     7     8   ar
    14     8     9   ar
    15     9    10   ar
    16    10    11   ar
    17    11    12   ar
    18    12    13    1
    19    15    16    1
    20    16    17    2
    21    16    18    2
    22    16    19    1
    23    19    20   ar
    24    20    21   ar
    25    21    22   ar
    26    22    23    1
    27    22    24   ar
    28    24    25   ar
    29    13     1    1
    30    25    19   ar
    31    12     4   ar
    32    11     6   ar
@<TRIPOS>MOLECULE
*****
 29 32 0 0 0
SMALL
GASTEIGER

@<TRIPOS>ATOM
      1 C          64.4071   89.7307   13.8285 C.3     1  UNL1        0.1025
      2 C          64.7436   88.5660   14.7118 C.3     1  UNL1        0.0259
      3 C          64.2676   87.1898   14.3521 C.3     1  UNL1        0.0450
      4 C          63.4551   86.9783   13.1091 C.ar    1  UNL1        0.0350
      5 C          62.8515   85.7466   12.5020 C.ar    1  UNL1        0.0141
      6 C          62.1419   86.1500   11.2435 C.ar    1  UNL1        0.0945
      7 N          61.3669   85.3601   10.2310 N.ar    1  UNL1       -0.2427
      8 C          60.7569   86.0512    9.0477 C.ar    1  UNL1        0.0989
      9 C          60.9219   87.5323    8.8770 C.ar    1  UNL1        0.0222
     10 C          61.6970   88.3222    9.8895 C.ar    1  UNL1        0.0203
     11 C          62.3070   87.6311   11.0728 C.ar    1  UNL1        0.0773
     12 N          63.1185   88.1430   12.2258 N.ar    1  UNL1       -0.3283
     13 C          63.5945   89.5192   12.5855 C.3     1  UNL1        0.1234
     14 C          64.7593   91.5983   15.6000 C.3     1  UNL1        0.1149
     15 N          64.8831   91.1070   14.1881 N.3     1  UNL1       -0.1535
     16 S          65.4830   91.9919   13.1359 S.O2    1  UNL1        0.0633
     17 O          66.8531   91.7021   13.6730 O.2     1  UNL1       -0.1528
     18 O          64.1127   92.2817   12.5986 O.2     1  UNL1       -0.1528
     19 C          66.0827   92.8768   12.0835 C.ar    1  UNL1        0.1223
     20 C          66.0347   94.3678   12.2409 C.ar    1  UNL1        0.0222
     21 C          66.6345   95.2527   11.1886 C.ar    1  UNL1        0.0310
     22 C          67.2821   94.6465    9.9790 C.ar    1  UNL1        0.1402
     23 F          67.8818   95.5313    8.9267 F       1  UNL1       -0.2042
     24 C          67.3300   93.1555    9.8217 C.ar    1  UNL1        0.0310
     25 C          66.7303   92.2707   10.8739 C.ar    1  UNL1        0.0222
     26 C          62.9416   84.3556   13.0561 C.3     1  UNL1        0.0707
     27 C          62.7003   84.1129   14.5166 C.2     1  UNL1        0.0548
     28 O          61.6439   84.8927   15.2419 O.co2   1  UNL1       -0.5488
     29 O          63.5153   83.0906   15.2518 O.co2   1  UNL1       -0.5488
@<TRIPOS>UNITY_ATOM_ATTR
28 1
charge -1
@<TRIPOS>BOND
     1    14    15    1
     2     1    15    1
     3     1     2    1
     4     2     3    1
     5     3     4    1
     6     4     5   ar
     7     5    26    1
     8    26    27    1
     9    27    28   ar
    10    27    29   ar
    11     5     6   ar
    12     6     7   ar
    13     7     8   ar
    14     8     9   ar
    15     9    10   ar
    16    10    11   ar
    17    11    12   ar
    18    12    13    1
    19    15    16    1
    20    16    17    2
    21    16    18    2
    22    16    19    1
    23    19    20   ar
    24    20    21   ar
    25    21    22   ar
    26    22    23    1
    27    22    24   ar
    28    24    25   ar
    29    13     1    1
    30    25    19   ar
    31    12     4   ar
    32    11     6   ar
@<TRIPOS>MOLECULE
*****
 29 32 0 0 0
SMALL
GASTEIGER

@<TRIPOS>ATOM
      1 C          63.3775   85.8857   13.0950 C.3     1  UNL1        0.1025
      2 C          63.9055   87.1945   13.6031 C.3     1  UNL1        0.0259
      3 C          63.5248   88.4735   12.9182 C.3     1  UNL1        0.0450
      4 C          62.6161   88.4437   11.7251 C.ar    1  UNL1        0.0350
      5 C          62.0712   89.5340   10.8510 C.ar    1  UNL1        0.0141
      6 C          61.2064   88.8991    9.8026 C.ar    1  UNL1        0.0945
      7 N          60.4108   89.4796    8.6712 N.ar    1  UNL1       -0.2427
      8 C          59.6257   88.5773    7.7661 C.ar    1  UNL1        0.0989
      9 C          59.6361   87.0945    7.9924 C.ar    1  UNL1        0.0222
     10 C          60.4317   86.5140    9.1237 C.ar    1  UNL1        0.0203
     11 C          61.2168   87.4163   10.0289 C.ar    1  UNL1        0.0773
     12 N          62.0880   87.1349   11.2170 N.ar    1  UNL1       -0.3283
     13 C          62.4688   85.8559   11.9020 C.3     1  UNL1        0.1234
     14 C          64.3941   84.6435   15.1380 C.3     1  UNL1        0.1149
     15 N          63.7582   84.6066   13.7800 N.3     1  UNL1       -0.1535
     16 S          63.5030   83.2907   13.1067 S.O2    1  UNL1        0.0633
     17 O          64.6614   83.5367   12.1863 O.2     1  UNL1       -0.1528
     18 O          62.3445   83.0445   14.0272 O.2     1  UNL1       -0.1528
     19 C          63.2476   81.9747   12.4336 C.ar    1  UNL1        0.1223
     20 C          62.8027   80.7923   13.2424 C.ar    1  UNL1        0.0222
     21 C          62.5474   79.4764   12.5693 C.ar    1  UNL1        0.0310
     22 C          62.7370   79.3429   11.0873 C.ar    1  UNL1        0.1402
     23 F          62.4817   78.0270   10.4141 F       1  UNL1       -0.2042
     24 C          63.1819   80.5252   10.2785 C.ar    1  UNL1        0.0310
     25 C          63.4372   81.8411   10.9516 C.ar    1  UNL1        0.0222
     26 C          62.3433   91.0017   10.9991 C.3     1  UNL1        0.0707
     27 C          63.6705   91.4698   11.5183 C.2     1  UNL1        0.0548
     28 O          63.8867   91.6227   12.9947 O.co2   1  UNL1       -0.5488
     29 O          64.7816   91.7849   10.5610 O.co2   1  UNL1       -0.5488
@<TRIPOS>UNITY_ATOM_ATTR
28 1
charge -1
@<TRIPOS>BOND
     1    14    15    1
     2     1    15    1
     3     1     2    1
     4     2     3    1
     5     3     4    1
     6     4     5   ar
     7     5    26    1
     8    26    27    1
     9    27    28   ar
    10    27    29   ar
    11     5     6   ar
    12     6     7   ar
    13     7     8   ar
    14     8     9   ar
    15     9    10   ar
    16    10    11   ar
    17    11    12   ar
    18    12    13    1
    19    15    16    1
    20    16    17    2
    21    16    18    2
    22    16    19    1
    23    19    20   ar
    24    20    21   ar
    25    21    22   ar
    26    22    23    1
    27    22    24   ar
    28    24    25   ar
    29    13     1    1
    30    25    19   ar
    31    12     4   ar
    32    11     6   ar
@<TRIPOS>MOLECULE
*****
 29 32 0 0 0
SMALL
GASTEIGER

@<TRIPOS>ATOM
      1 C          62.9121   89.3752   12.3043 C.3     1  UNL1        0.1025
      2 C          63.3919   89.1514   13.7078 C.3     1  UNL1        0.0259
      3 C          64.3918   90.0889   14.3170 C.3     1  UNL1        0.0450
      4 C          64.9118   91.2503   13.5229 C.ar    1  UNL1        0.0350
      5 C          65.8947   92.3337   13.8550 C.ar    1  UNL1        0.0141
      6 C          66.0223   93.2271   12.6568 C.ar    1  UNL1        0.0945
      7 N          66.8449   94.4556   12.4040 N.ar    1  UNL1       -0.2427
      8 C          66.7635   95.1530   11.0785 C.ar    1  UNL1        0.0989
      9 C          65.8595   94.6218   10.0058 C.ar    1  UNL1        0.0222
     10 C          65.0369   93.3932   10.2587 C.ar    1  UNL1        0.0203
     11 C          65.1183   92.6959   11.5842 C.ar    1  UNL1        0.0773
     12 N          64.4320   91.4742   12.1194 N.ar    1  UNL1       -0.3283
     13 C          63.4322   90.5366   11.5102 C.3     1  UNL1        0.1234
     14 C          60.5232   88.9161   11.3917 C.3     1  UNL1        0.1149
     15 N          61.9122   88.4376   11.6950 N.3     1  UNL1       -0.1535
     16 S          62.3013   87.0217   11.3890 S.O2    1  UNL1        0.0633
     17 O          61.5397   87.0910   10.0987 O.2     1  UNL1       -0.1528
     18 O          63.0629   86.9523   12.6795 O.2     1  UNL1       -0.1528
     19 C          62.6905   85.6057   11.0832 C.ar    1  UNL1        0.1223
     20 C          63.0258   85.2072    9.6764 C.ar    1  UNL1        0.0222
     21 C          63.4150   83.7912    9.3705 C.ar    1  UNL1        0.0310
     22 C          63.4689   82.7738   10.4714 C.ar    1  UNL1        0.1402
     23 F          63.8581   81.3578   10.1656 F       1  UNL1       -0.2042
     24 C          63.1337   83.1723   11.8781 C.ar    1  UNL1        0.0310
     25 C          62.7445   84.5882   12.1840 C.ar    1  UNL1        0.0222
     26 C          66.6222   92.4953   15.1568 C.3     1  UNL1        0.0707
     27 C          68.0021   93.0834   15.1768 C.2     1  UNL1        0.0548
     28 O          68.3152   94.2305   16.0911 O.co2   1  UNL1       -0.5488
     29 O          69.0687   92.5242   14.2826 O.co2   1  UNL1       -0.5488
@<TRIPOS>UNITY_ATOM_ATTR
28 1
charge -1
@<TRIPOS>BOND
     1    14    15    1
     2     1    15    1
     3     1     2    1
     4     2     3    1
     5     3     4    1
     6     4     5   ar
     7     5    26    1
     8    26    27    1
     9    27    28   ar
    10    27    29   ar
    11     5     6   ar
    12     6     7   ar
    13     7     8   ar
    14     8     9   ar
    15     9    10   ar
    16    10    11   ar
    17    11    12   ar
    18    12    13    1
    19    15    16    1
    20    16    17    2
    21    16    18    2
    22    16    19    1
    23    19    20   ar
    24    20    21   ar
    25    21    22   ar
    26    22    23    1
    27    22    24   ar
    28    24    25   ar
    29    13     1    1
    30    25    19   ar
    31    12     4   ar
    32    11     6   ar
@<TRIPOS>MOLECULE
*****
 29 32 0 0 0
SMALL
GASTEIGER

@<TRIPOS>ATOM
      1 C          63.5144   88.5575   12.8244 C.3     1  UNL1        0.1025
      2 C          63.8968   88.4720   14.2723 C.3     1  UNL1        0.0259
      3 C          64.6448   89.6004   14.9183 C.3     1  UNL1        0.0450
      4 C          65.0103   90.8142   14.1164 C.ar    1  UNL1        0.0350
      5 C          65.7399   92.0739   14.4783 C.ar    1  UNL1        0.0141
      6 C          65.8085   92.9379   13.2540 C.ar    1  UNL1        0.0945
      7 N          66.4078   94.2916   13.0132 N.ar    1  UNL1       -0.2427
      8 C          66.3200   94.9197   11.6539 C.ar    1  UNL1        0.0989
      9 C          65.6327   94.1940   10.5354 C.ar    1  UNL1        0.0222
     10 C          65.0333   92.8402   10.7762 C.ar    1  UNL1        0.0203
     11 C          65.1212   92.2122   12.1355 C.ar    1  UNL1        0.0773
     12 N          64.6279   90.8997   12.6685 N.ar    1  UNL1       -0.3283
     13 C          63.8800   89.7714   12.0225 C.3     1  UNL1        0.1234
     14 C          62.8962   86.0362   12.7194 C.3     1  UNL1        0.1149
     15 N          62.7664   87.4291   12.1783 N.3     1  UNL1       -0.1535
     16 S          61.8887   87.6939   10.9910 S.O2    1  UNL1        0.0633
     17 O          62.7704   86.8239   10.1451 O.2     1  UNL1       -0.1528
     18 O          61.0070   88.5639   11.8370 O.2     1  UNL1       -0.1528
     19 C          61.0109   87.9587    9.8038 C.ar    1  UNL1        0.1223
     20 C          60.3135   86.8213    9.1182 C.ar    1  UNL1        0.0222
     21 C          59.4357   87.0861    7.9310 C.ar    1  UNL1        0.0310
     22 C          59.2555   88.4882    7.4295 C.ar    1  UNL1        0.1402
     23 F          58.3777   88.7530    6.2423 F       1  UNL1       -0.2042
     24 C          59.9529   89.6255    8.1151 C.ar    1  UNL1        0.0310
     25 C          60.8306   89.3608    9.3022 C.ar    1  UNL1        0.0222
     26 C          66.3023   92.4105   15.8275 C.3     1  UNL1        0.0707
     27 C          67.7377   92.8257   15.9595 C.2     1  UNL1        0.0548
     28 O          68.8140   91.7850   16.0524 O.co2   1  UNL1       -0.5488
     29 O          68.0968   94.2815   15.9985 O.co2   1  UNL1       -0.5488
@<TRIPOS>UNITY_ATOM_ATTR
28 1
charge -1
@<TRIPOS>BOND
     1    14    15    1
     2     1    15    1
     3     1     2    1
     4     2     3    1
     5     3     4    1
     6     4     5   ar
     7     5    26    1
     8    26    27    1
     9    27    28   ar
    10    27    29   ar
    11     5     6   ar
    12     6     7   ar
    13     7     8   ar
    14     8     9   ar
    15     9    10   ar
    16    10    11   ar
    17    11    12   ar
    18    12    13    1
    19    15    16    1
    20    16    17    2
    21    16    18    2
    22    16    19    1
    23    19    20   ar
    24    20    21   ar
    25    21    22   ar
    26    22    23    1
    27    22    24   ar
    28    24    25   ar
    29    13     1    1
    30    25    19   ar
    31    12     4   ar
    32    11     6   ar
@<TRIPOS>MOLECULE
*****
 29 32 0 0 0
SMALL
GASTEIGER

@<TRIPOS>ATOM
      1 C          64.0314   89.7951   13.0855 C.3     1  UNL1        0.1025
      2 C          63.1827   89.8575   11.8503 C.3     1  UNL1        0.0259
      3 C          62.5645   88.6060   11.3011 C.3     1  UNL1        0.0450
      4 C          62.7951   87.2921   11.9872 C.ar    1  UNL1        0.0350
      5 C          62.3201   85.9027   11.6807 C.ar    1  UNL1        0.0141
      6 C          62.8752   84.9817   12.7264 C.ar    1  UNL1        0.0945
      7 N          62.7414   83.5022   12.9341 N.ar    1  UNL1       -0.2427
      8 C          63.4258   82.8429   14.0946 C.ar    1  UNL1        0.0989
      9 C          64.2440   83.6631   15.0475 C.ar    1  UNL1        0.0222
     10 C          64.3778   85.1426   14.8398 C.ar    1  UNL1        0.0203
     11 C          63.6934   85.8019   13.6792 C.ar    1  UNL1        0.0773
     12 N          63.6439   87.2298   13.2224 N.ar    1  UNL1       -0.3283
     13 C          64.2620   88.4813   13.7715 C.3     1  UNL1        0.1234
     14 C          64.6063   91.3201   15.1089 C.3     1  UNL1        0.1149
     15 N          64.6496   91.0467   13.6347 N.3     1  UNL1       -0.1535
     16 S          65.3111   92.0247   12.7095 S.O2    1  UNL1        0.0633
     17 O          63.9698   92.4154   12.1635 O.2     1  UNL1       -0.1528
     18 O          66.6524   91.6340   13.2557 O.2     1  UNL1       -0.1528
     19 C          65.9726   93.0028   11.7844 C.ar    1  UNL1        0.1223
     20 C          65.9163   94.4721   12.0814 C.ar    1  UNL1        0.0222
     21 C          66.5779   95.4501   11.1563 C.ar    1  UNL1        0.0310
     22 C          67.2957   94.9588    9.9342 C.ar    1  UNL1        0.1402
     23 F          67.9573   95.9368    9.0091 F       1  UNL1       -0.2042
     24 C          67.3520   93.4895    9.6373 C.ar    1  UNL1        0.0310
     25 C          66.6905   92.5116   10.5624 C.ar    1  UNL1        0.0222
     26 C          61.4437   85.5043   10.5303 C.3     1  UNL1        0.0707
     27 C          61.7950   85.9327    9.1363 C.2     1  UNL1        0.0548
     28 O          60.8200   86.7402    8.3317 O.co2   1  UNL1       -0.5488
     29 O          63.1212   85.5535    8.5469 O.co2   1  UNL1       -0.5488
@<TRIPOS>UNITY_ATOM_ATTR
28 1
charge -1
@<TRIPOS>BOND
     1    14    15    1
     2     1    15    1
     3     1     2    1
     4     2     3    1
     5     3     4    1
     6     4     5   ar
     7     5    26    1
     8    26    27    1
     9    27    28   ar
    10    27    29   ar
    11     5     6   ar
    12     6     7   ar
    13     7     8   ar
    14     8     9   ar
    15     9    10   ar
    16    10    11   ar
    17    11    12   ar
    18    12    13    1
    19    15    16    1
    20    16    17    2
    21    16    18    2
    22    16    19    1
    23    19    20   ar
    24    20    21   ar
    25    21    22   ar
    26    22    23    1
    27    22    24   ar
    28    24    25   ar
    29    13     1    1
    30    25    19   ar
    31    12     4   ar
    32    11     6   ar
