@<TRIPOS>MOLECULE
*****
 37 40 0 0 0
SMALL
GASTEIGER

@<TRIPOS>ATOM
      1 C          62.4845   86.8259   17.7439 C.3     1  UNL1        0.0553
      2 C          63.1813   87.7435   16.7835 C.ar    1  UNL1        0.0939
      3 N          63.2291   89.2402   16.8711 N.ar    1  UNL1       -0.1721
      4 N          64.0300   89.7473   15.7087 N.ar    1  UNL1       -0.2463
      5 C          64.4773   88.5640   14.9026 C.ar    1  UNL1        0.1112
      6 C          63.9528   87.3256   15.5669 C.ar    1  UNL1        0.0850
      7 N          64.1629   85.9167   15.0971 N.am    1  UNL1       -0.2769
      8 C          62.9951   84.9825   14.9819 C.2     1  UNL1        0.2706
      9 O          61.6171   85.4572   15.3366 O.2     1  UNL1       -0.2680
     10 H          65.0673   85.6051   14.8643 H       1  UNL1        0.1553
     11 C          63.2051   83.5736   14.5121 C.ar    1  UNL1        0.1764
     12 C          62.8459   83.0322   13.1601 C.ar    1  UNL1        0.0688
     13 C          63.2301   81.5827   13.1241 C.ar    1  UNL1        0.1945
     14 O          63.8268   81.2282   14.4539 O.2     1  UNL1       -0.3517
     15 N          63.8114   82.4586   15.3117 N.ar    1  UNL1       -0.0722
     16 C          63.0493   80.6512   11.9623 C.ar    1  UNL1        0.1184
     17 C          63.2361   81.1543   10.5616 C.ar    1  UNL1        0.0223
     18 C          63.0553   80.2228    9.3998 C.ar    1  UNL1        0.0032
     19 C          62.6877   78.7882    9.6388 C.ar    1  UNL1        0.0207
     20 C          62.5010   78.2852   11.0396 C.ar    1  UNL1        0.0989
     21 N          62.6817   79.2167   12.2013 N.ar    1  UNL1       -0.2407
     22 C          64.3309   91.1852   15.4055 C.3     1  UNL1        0.1274
     23 C          63.9629   92.2528   16.3928 C.3     1  UNL1        0.0312
     24 C          64.9997   91.5555   14.1149 C.ar    1  UNL1        0.0038
     25 C          64.2315   91.4959   12.8279 C.ar    1  UNL1       -0.0025
     26 C          64.9003   91.8662   11.5374 C.ar    1  UNL1        0.0036
     27 C          66.3374   92.2962   11.5338 C.ar    1  UNL1        0.0714
     28 C          67.1056   92.3558   12.8208 C.ar    1  UNL1        0.0074
     29 C          66.4368   91.9855   14.1113 C.ar    1  UNL1        0.0692
     30 C          67.0062   92.6665   10.2432 C.3     1  UNL1        0.4186
     31 F          67.6750   93.0368    8.9527 F       1  UNL1       -0.1659
     32 F          68.2367   91.9205   10.6668 F       1  UNL1       -0.1659
     33 F          65.7758   93.4124    9.8196 F       1  UNL1       -0.1659
     34 C          67.2050   92.0451   15.3983 C.3     1  UNL1        0.4183
     35 F          67.9732   92.1046   16.6853 F       1  UNL1       -0.1659
     36 F          67.5701   90.5981   15.2473 F       1  UNL1       -0.1659
     37 F          66.8399   93.4921   15.5493 F       1  UNL1       -0.1659
@<TRIPOS>BOND
     1     1     2    1
     2     2     3   ar
     3     3     4   ar
     4     4    22    1
     5    22    23    1
     6    22    24    1
     7    24    25   ar
     8    25    26   ar
     9    26    27   ar
    10    27    30    1
    11    30    31    1
    12    30    32    1
    13    30    33    1
    14    27    28   ar
    15    28    29   ar
    16    29    34    1
    17    34    35    1
    18    34    36    1
    19    34    37    1
    20     4     5   ar
    21     5     6   ar
    22     6     7    1
    23     7     8   am
    24     8     9    2
    25     8    11    1
    26    11    12   ar
    27    12    13   ar
    28    13    16    1
    29    16    17   ar
    30    17    18   ar
    31    18    19   ar
    32    19    20   ar
    33    20    21   ar
    34    13    14   ar
    35    14    15   ar
    36     6     2   ar
    37    15    11   ar
    38    29    24   ar
    39    21    16   ar
    40     7    10    1
@<TRIPOS>MOLECULE
*****
 37 40 0 0 0
SMALL
GASTEIGER

@<TRIPOS>ATOM
      1 C          63.3744   90.7459   12.7970 C.3     1  UNL1        0.0553
      2 C          63.4287   89.2477   12.8469 C.ar    1  UNL1        0.0939
      3 N          64.1547   88.4253   13.8699 N.ar    1  UNL1       -0.1721
      4 N          63.9413   86.9782   13.5378 N.ar    1  UNL1       -0.2463
      5 C          63.0834   86.9062   12.3095 C.ar    1  UNL1        0.1112
      6 C          62.7666   88.3088   11.8824 C.ar    1  UNL1        0.0850
      7 N          61.9339   88.7032   10.6988 N.am    1  UNL1       -0.2769
      8 C          60.9733   87.7210   10.0969 C.2     1  UNL1        0.2706
      9 O          60.8453   86.3444   10.6786 O.2     1  UNL1       -0.2680
     10 H          62.0179   89.6068   10.3170 H       1  UNL1        0.1553
     11 C          60.1406   88.1155    8.9132 C.ar    1  UNL1        0.1764
     12 C          60.3606   89.3159    8.0411 C.ar    1  UNL1        0.0688
     13 C          59.2977   89.3211    6.9828 C.ar    1  UNL1        0.1945
     14 O          58.4207   88.1239    7.2008 O.2     1  UNL1       -0.3517
     15 N          58.9416   87.3788    8.3939 N.ar    1  UNL1       -0.0722
     16 C          59.1396   90.3439    5.8970 C.ar    1  UNL1        0.1184
     17 C          57.7715   90.8249    5.5133 C.ar    1  UNL1        0.0223
     18 C          57.6134   91.8477    4.4275 C.ar    1  UNL1        0.0032
     19 C          58.8232   92.3896    3.7256 C.ar    1  UNL1        0.0207
     20 C          60.1912   91.9086    4.1094 C.ar    1  UNL1        0.0989
     21 N          60.3493   90.8858    5.1951 N.ar    1  UNL1       -0.2407
     22 C          64.4895   85.8085   14.3002 C.3     1  UNL1        0.1274
     23 C          65.6541   85.9964   15.2267 C.3     1  UNL1        0.0312
     24 C          63.8731   84.4508   14.1361 C.ar    1  UNL1        0.0038
     25 C          64.3620   83.5306   13.0572 C.ar    1  UNL1       -0.0025
     26 C          63.7456   82.1730   12.8931 C.ar    1  UNL1        0.0036
     27 C          62.6402   81.7357   13.8079 C.ar    1  UNL1        0.0714
     28 C          62.1513   82.6559   14.8868 C.ar    1  UNL1        0.0074
     29 C          62.7677   84.0135   15.0509 C.ar    1  UNL1        0.0692
     30 C          62.0238   80.3780   13.6438 C.3     1  UNL1        0.4186
     31 F          61.4074   79.0204   13.4796 F       1  UNL1       -0.1659
     32 F          60.9205   80.7654   14.5832 F       1  UNL1       -0.1659
     33 F          63.1271   79.9907   12.7043 F       1  UNL1       -0.1659
     34 C          62.2788   84.9338   16.1299 C.3     1  UNL1        0.4183
     35 F          61.7898   85.8540   17.2087 F       1  UNL1       -0.1659
     36 F          60.9645   85.0681   15.4196 F       1  UNL1       -0.1659
     37 F          63.5931   84.7994   16.8401 F       1  UNL1       -0.1659
@<TRIPOS>BOND
     1     1     2    1
     2     2     3   ar
     3     3     4   ar
     4     4    22    1
     5    22    23    1
     6    22    24    1
     7    24    25   ar
     8    25    26   ar
     9    26    27   ar
    10    27    30    1
    11    30    31    1
    12    30    32    1
    13    30    33    1
    14    27    28   ar
    15    28    29   ar
    16    29    34    1
    17    34    35    1
    18    34    36    1
    19    34    37    1
    20     4     5   ar
    21     5     6   ar
    22     6     7    1
    23     7     8   am
    24     8     9    2
    25     8    11    1
    26    11    12   ar
    27    12    13   ar
    28    13    16    1
    29    16    17   ar
    30    17    18   ar
    31    18    19   ar
    32    19    20   ar
    33    20    21   ar
    34    13    14   ar
    35    14    15   ar
    36     6     2   ar
    37    15    11   ar
    38    29    24   ar
    39    21    16   ar
    40     7    10    1
@<TRIPOS>MOLECULE
*****
 37 40 0 0 0
SMALL
GASTEIGER

@<TRIPOS>ATOM
      1 C          59.7484   88.9132   11.4751 C.3     1  UNL1        0.0553
      2 C          61.2013   89.2825   11.5271 C.ar    1  UNL1        0.0939
      3 N          61.7636   90.6681   11.4084 N.ar    1  UNL1       -0.1721
      4 N          63.2568   90.5731   11.5149 N.ar    1  UNL1       -0.2463
      5 C          63.6173   89.1288   11.6994 C.ar    1  UNL1        0.1112
      6 C          62.3469   88.3312   11.7069 C.ar    1  UNL1        0.0850
      7 N          62.2409   86.8434   11.8663 N.am    1  UNL1       -0.2769
      8 C          63.0105   86.1485   12.9500 C.2     1  UNL1        0.2706
      9 O          63.8863   86.9413   13.8745 O.2     1  UNL1       -0.2680
     10 H          61.6661   86.3231   11.2595 H       1  UNL1        0.1553
     11 C          62.9045   84.6608   13.1094 C.ar    1  UNL1        0.1764
     12 C          62.9359   83.6508   12.0007 C.ar    1  UNL1        0.0688
     13 C          62.7993   82.2876   12.6115 C.ar    1  UNL1        0.1945
     14 O          62.6834   82.4551   14.0976 O.2     1  UNL1       -0.3517
     15 N          62.7484   83.9218   14.4053 N.ar    1  UNL1       -0.0722
     16 C          62.7816   80.9856   11.8669 C.ar    1  UNL1        0.1184
     17 C          63.0131   80.9660   10.3849 C.ar    1  UNL1        0.0223
     18 C          62.9954   79.6640    9.6403 C.ar    1  UNL1        0.0032
     19 C          62.7463   78.3816   10.3776 C.ar    1  UNL1        0.0207
     20 C          62.5148   78.4013   11.8595 C.ar    1  UNL1        0.0989
     21 N          62.5325   79.7033   12.6041 N.ar    1  UNL1       -0.2407
     22 C          64.2203   91.7208   11.4486 C.3     1  UNL1        0.1274
     23 C          64.1367   92.7059   10.3206 C.3     1  UNL1        0.0312
     24 C          65.2674   91.8833   12.5104 C.ar    1  UNL1        0.0038
     25 C          65.0254   91.3480   13.8905 C.ar    1  UNL1       -0.0025
     26 C          66.0725   91.5105   14.9522 C.ar    1  UNL1        0.0036
     27 C          67.3615   92.2085   14.6337 C.ar    1  UNL1        0.0714
     28 C          67.6034   92.7438   13.2536 C.ar    1  UNL1        0.0074
     29 C          66.5563   92.5813   12.1919 C.ar    1  UNL1        0.0692
     30 C          68.4086   92.3710   15.6955 C.3     1  UNL1        0.4186
     31 F          69.4556   92.5335   16.7572 F       1  UNL1       -0.1659
     32 F          69.4680   92.4589   14.6373 F       1  UNL1       -0.1659
     33 F          67.3491   92.2832   16.7536 F       1  UNL1       -0.1659
     34 C          66.7982   93.1166   10.8117 C.3     1  UNL1        0.4183
     35 F          67.0401   93.6520    9.4315 F       1  UNL1       -0.1659
     36 F          66.3161   94.4673   11.2511 F       1  UNL1       -0.1659
     37 F          67.2804   91.7659   10.3722 F       1  UNL1       -0.1659
@<TRIPOS>BOND
     1     1     2    1
     2     2     3   ar
     3     3     4   ar
     4     4    22    1
     5    22    23    1
     6    22    24    1
     7    24    25   ar
     8    25    26   ar
     9    26    27   ar
    10    27    30    1
    11    30    31    1
    12    30    32    1
    13    30    33    1
    14    27    28   ar
    15    28    29   ar
    16    29    34    1
    17    34    35    1
    18    34    36    1
    19    34    37    1
    20     4     5   ar
    21     5     6   ar
    22     6     7    1
    23     7     8   am
    24     8     9    2
    25     8    11    1
    26    11    12   ar
    27    12    13   ar
    28    13    16    1
    29    16    17   ar
    30    17    18   ar
    31    18    19   ar
    32    19    20   ar
    33    20    21   ar
    34    13    14   ar
    35    14    15   ar
    36     6     2   ar
    37    15    11   ar
    38    29    24   ar
    39    21    16   ar
    40     7    10    1
@<TRIPOS>MOLECULE
*****
 37 40 0 0 0
SMALL
GASTEIGER

@<TRIPOS>ATOM
      1 C          62.4807   93.2304    1.7542 C.3     1  UNL1        0.0553
      2 C          61.2495   93.6038    0.9830 C.ar    1  UNL1        0.0939
      3 N          61.1870   94.5655   -0.1664 N.ar    1  UNL1       -0.1721
      4 N          59.7636   94.6371   -0.6341 N.ar    1  UNL1       -0.2463
      5 C          58.9464   93.7196    0.2263 C.ar    1  UNL1        0.1112
      6 C          59.8647   93.0809    1.2257 C.ar    1  UNL1        0.0850
      7 N          59.4679   92.0929    2.2823 N.am    1  UNL1       -0.2769
      8 C          59.3918   92.5203    3.7180 C.2     1  UNL1        0.2706
      9 O          59.7127   93.9356    4.0973 O.2     1  UNL1       -0.2680
     10 H          59.2573   91.1640    2.0334 H       1  UNL1        0.1553
     11 C          58.9950   91.5323    4.7746 C.ar    1  UNL1        0.1764
     12 C          59.9279   90.6583    5.5594 C.ar    1  UNL1        0.0688
     13 C          59.1051   89.8306    6.5017 C.ar    1  UNL1        0.1945
     14 O          57.6637   90.1931    6.2993 O.2     1  UNL1       -0.3517
     15 N          57.5956   91.2448    5.2319 N.ar    1  UNL1       -0.0722
     16 C          59.6313   88.8182    7.4755 C.ar    1  UNL1        0.1184
     17 C          59.3625   87.3585    7.2584 C.ar    1  UNL1        0.0223
     18 C          59.8888   86.3461    8.2322 C.ar    1  UNL1        0.0032
     19 C          60.6837   86.7935    9.4230 C.ar    1  UNL1        0.0207
     20 C          60.9524   88.2531    9.6400 C.ar    1  UNL1        0.0989
     21 N          60.4262   89.2655    8.6662 N.ar    1  UNL1       -0.2407
     22 C          59.2480   95.4785   -1.7638 C.3     1  UNL1        0.1274
     23 C          60.2099   96.1771   -2.6784 C.3     1  UNL1        0.0312
     24 C          57.7703   95.6213   -1.9788 C.ar    1  UNL1        0.0038
     25 C          57.0055   96.6851   -1.2486 C.ar    1  UNL1       -0.0025
     26 C          55.5279   96.8279   -1.4636 C.ar    1  UNL1        0.0036
     27 C          54.8151   95.9068   -2.4088 C.ar    1  UNL1        0.0714
     28 C          55.5799   94.8430   -3.1391 C.ar    1  UNL1        0.0074
     29 C          57.0575   94.7002   -2.9241 C.ar    1  UNL1        0.0692
     30 C          53.3374   96.0496   -2.6239 C.3     1  UNL1        0.4186
     31 F          51.8598   96.1924   -2.8388 F       1  UNL1       -0.1659
     32 F          53.5492   96.0064   -4.1082 F       1  UNL1       -0.1659
     33 F          53.1257   96.0927   -1.1395 F       1  UNL1       -0.1659
     34 C          57.8224   93.6363   -3.6543 C.3     1  UNL1        0.4183
     35 F          58.5872   92.5725   -4.3845 F       1  UNL1       -0.1659
     36 F          57.6380   92.7061   -2.4922 F       1  UNL1       -0.1659
     37 F          58.0068   94.5666   -4.8165 F       1  UNL1       -0.1659
@<TRIPOS>BOND
     1     1     2    1
     2     2     3   ar
     3     3     4   ar
     4     4    22    1
     5    22    23    1
     6    22    24    1
     7    24    25   ar
     8    25    26   ar
     9    26    27   ar
    10    27    30    1
    11    30    31    1
    12    30    32    1
    13    30    33    1
    14    27    28   ar
    15    28    29   ar
    16    29    34    1
    17    34    35    1
    18    34    36    1
    19    34    37    1
    20     4     5   ar
    21     5     6   ar
    22     6     7    1
    23     7     8   am
    24     8     9    2
    25     8    11    1
    26    11    12   ar
    27    12    13   ar
    28    13    16    1
    29    16    17   ar
    30    17    18   ar
    31    18    19   ar
    32    19    20   ar
    33    20    21   ar
    34    13    14   ar
    35    14    15   ar
    36     6     2   ar
    37    15    11   ar
    38    29    24   ar
    39    21    16   ar
    40     7    10    1
@<TRIPOS>MOLECULE
*****
 37 40 0 0 0
SMALL
GASTEIGER

@<TRIPOS>ATOM
      1 C          58.6715   89.4710   11.5102 C.3     1  UNL1        0.0553
      2 C          60.0114   88.8190   11.3385 C.ar    1  UNL1        0.0939
      3 N          60.6863   87.9167   12.3286 N.ar    1  UNL1       -0.1721
      4 N          62.0037   87.4948   11.7485 N.ar    1  UNL1       -0.2463
      5 C          62.1430   88.1365   10.3999 C.ar    1  UNL1        0.1112
      6 C          60.9117   88.9549   10.1464 C.ar    1  UNL1        0.0850
      7 N          60.6302   89.7665    8.9168 N.am    1  UNL1       -0.2769
      8 C          59.7850   89.1944    7.8177 C.2     1  UNL1        0.2706
      9 O          59.2212   87.8105    7.9482 O.2     1  UNL1       -0.2680
     10 H          61.0003   90.6748    8.8312 H       1  UNL1        0.1553
     11 C          59.5035   90.0061    6.5881 C.ar    1  UNL1        0.1764
     12 C          60.5272   90.6782    5.7219 C.ar    1  UNL1        0.0688
     13 C          59.8053   91.3757    4.6073 C.ar    1  UNL1        0.1945
     14 O          58.3355   91.1346    4.7846 O.2     1  UNL1       -0.3517
     15 N          58.1489   90.2882    6.0089 N.ar    1  UNL1       -0.0722
     16 C          60.4415   92.1740    3.5083 C.ar    1  UNL1        0.1184
     17 C          61.9002   92.0016    3.2038 C.ar    1  UNL1        0.0223
     18 C          62.5365   92.7999    2.1048 C.ar    1  UNL1        0.0032
     19 C          61.7140   93.7708    1.3103 C.ar    1  UNL1        0.0207
     20 C          60.2554   93.9432    1.6147 C.ar    1  UNL1        0.0989
     21 N          59.6192   93.1448    2.7137 N.ar    1  UNL1       -0.2407
     22 C          63.0058   86.5902   12.4023 C.3     1  UNL1        0.1274
     23 C          64.0579   87.1640   13.3043 C.3     1  UNL1        0.0312
     24 C          62.9557   85.1117   12.1541 C.ar    1  UNL1        0.0038
     25 C          62.8726   84.5893   10.7505 C.ar    1  UNL1       -0.0025
     26 C          62.8225   83.1108   10.5023 C.ar    1  UNL1        0.0036
     27 C          62.8555   82.1548   11.6577 C.ar    1  UNL1        0.0714
     28 C          62.9386   82.6772   13.0613 C.ar    1  UNL1        0.0074
     29 C          62.9887   84.1557   13.3095 C.ar    1  UNL1        0.0692
     30 C          62.8054   80.6763   11.4094 C.3     1  UNL1        0.4186
     31 F          62.7554   79.1979   11.1611 F       1  UNL1       -0.1659
     32 F          62.4038   80.4502   12.8368 F       1  UNL1       -0.1659
     33 F          63.2071   80.9024    9.9820 F       1  UNL1       -0.1659
     34 C          63.0718   84.6782   14.7131 C.3     1  UNL1        0.4183
     35 F          63.1549   85.2007   16.1167 F       1  UNL1       -0.1659
     36 F          61.5750   84.7544   14.7734 F       1  UNL1       -0.1659
     37 F          64.5687   84.6020   14.6529 F       1  UNL1       -0.1659
@<TRIPOS>BOND
     1     1     2    1
     2     2     3   ar
     3     3     4   ar
     4     4    22    1
     5    22    23    1
     6    22    24    1
     7    24    25   ar
     8    25    26   ar
     9    26    27   ar
    10    27    30    1
    11    30    31    1
    12    30    32    1
    13    30    33    1
    14    27    28   ar
    15    28    29   ar
    16    29    34    1
    17    34    35    1
    18    34    36    1
    19    34    37    1
    20     4     5   ar
    21     5     6   ar
    22     6     7    1
    23     7     8   am
    24     8     9    2
    25     8    11    1
    26    11    12   ar
    27    12    13   ar
    28    13    16    1
    29    16    17   ar
    30    17    18   ar
    31    18    19   ar
    32    19    20   ar
    33    20    21   ar
    34    13    14   ar
    35    14    15   ar
    36     6     2   ar
    37    15    11   ar
    38    29    24   ar
    39    21    16   ar
    40     7    10    1
@<TRIPOS>MOLECULE
*****
 37 40 0 0 0
SMALL
GASTEIGER

@<TRIPOS>ATOM
      1 C          63.8834   92.8513    1.9044 C.3     1  UNL1        0.0553
      2 C          62.7425   93.4105    1.1072 C.ar    1  UNL1        0.0939
      3 N          62.8530   94.3942   -0.0197 N.ar    1  UNL1       -0.1721
      4 N          61.4695   94.6759   -0.5265 N.ar    1  UNL1       -0.2463
      5 C          60.5041   93.8662    0.2873 C.ar    1  UNL1        0.1112
      6 C          61.2908   93.0841    1.2970 C.ar    1  UNL1        0.0850
      7 N          60.7251   92.1413    2.3173 N.am    1  UNL1       -0.2769
      8 C          59.9553   92.6768    3.4879 C.2     1  UNL1        0.2706
      9 O          59.7511   94.1552    3.6383 O.2     1  UNL1       -0.2680
     10 H          60.8591   91.1709    2.2185 H       1  UNL1        0.1553
     11 C          59.3896   91.7339    4.5082 C.ar    1  UNL1        0.1764
     12 C          60.1770   90.7952    5.3735 C.ar    1  UNL1        0.0688
     13 C          59.2113   90.0453    6.2424 C.ar    1  UNL1        0.1945
     14 O          57.8270   90.5206    5.9141 O.2     1  UNL1       -0.3517
     15 N          57.9371   91.5642    4.8423 N.ar    1  UNL1       -0.0722
     16 C          59.5673   89.0031    7.2608 C.ar    1  UNL1        0.1184
     17 C          59.3698   87.5496    6.9471 C.ar    1  UNL1        0.0223
     18 C          59.7259   86.5074    7.9654 C.ar    1  UNL1        0.0032
     19 C          60.2794   86.9188    9.2976 C.ar    1  UNL1        0.0207
     20 C          60.4768   88.3722    9.6112 C.ar    1  UNL1        0.0989
     21 N          60.1208   89.4144    8.5929 N.ar    1  UNL1       -0.2407
     22 C          61.1140   95.6043   -1.6498 C.3     1  UNL1        0.1274
     23 C          61.9143   96.8532   -1.8723 C.3     1  UNL1        0.0312
     24 C          59.9581   95.2836   -2.5505 C.ar    1  UNL1        0.0038
     25 C          58.5613   95.6351   -2.1321 C.ar    1  UNL1       -0.0025
     26 C          57.4055   95.3144   -3.0328 C.ar    1  UNL1        0.0036
     27 C          57.6466   94.6422   -4.3519 C.ar    1  UNL1        0.0714
     28 C          59.0435   94.2908   -4.7703 C.ar    1  UNL1        0.0074
     29 C          60.1993   94.6114   -3.8696 C.ar    1  UNL1        0.0692
     30 C          56.4908   94.3215   -5.2526 C.3     1  UNL1        0.4186
     31 F          55.3349   94.0009   -6.1533 F       1  UNL1       -0.1659
     32 F          57.4468   93.9355   -6.3421 F       1  UNL1       -0.1659
     33 F          55.5347   94.7076   -4.1632 F       1  UNL1       -0.1659
     34 C          61.5963   94.2600   -4.2880 C.3     1  UNL1        0.4183
     35 F          62.9932   93.9085   -4.7063 F       1  UNL1       -0.1659
     36 F          61.5883   93.0985   -3.3389 F       1  UNL1       -0.1659
     37 F          61.6043   95.4214   -5.2371 F       1  UNL1       -0.1659
@<TRIPOS>BOND
     1     1     2    1
     2     2     3   ar
     3     3     4   ar
     4     4    22    1
     5    22    23    1
     6    22    24    1
     7    24    25   ar
     8    25    26   ar
     9    26    27   ar
    10    27    30    1
    11    30    31    1
    12    30    32    1
    13    30    33    1
    14    27    28   ar
    15    28    29   ar
    16    29    34    1
    17    34    35    1
    18    34    36    1
    19    34    37    1
    20     4     5   ar
    21     5     6   ar
    22     6     7    1
    23     7     8   am
    24     8     9    2
    25     8    11    1
    26    11    12   ar
    27    12    13   ar
    28    13    16    1
    29    16    17   ar
    30    17    18   ar
    31    18    19   ar
    32    19    20   ar
    33    20    21   ar
    34    13    14   ar
    35    14    15   ar
    36     6     2   ar
    37    15    11   ar
    38    29    24   ar
    39    21    16   ar
    40     7    10    1
@<TRIPOS>MOLECULE
*****
 37 40 0 0 0
SMALL
GASTEIGER

@<TRIPOS>ATOM
      1 C          58.5009   89.1519   11.4161 C.3     1  UNL1        0.0553
      2 C          59.9013   88.6223   11.3246 C.ar    1  UNL1        0.0939
      3 N          60.5823   87.7507   12.3377 N.ar    1  UNL1       -0.1721
      4 N          61.9685   87.4610   11.8432 N.ar    1  UNL1       -0.2463
      5 C          62.1442   88.1536   10.5243 C.ar    1  UNL1        0.1112
      6 C          60.8667   88.8714   10.2038 C.ar    1  UNL1        0.0850
      7 N          60.6011   89.6937    8.9778 N.am    1  UNL1       -0.2769
      8 C          59.7569   89.1373    7.8699 C.2     1  UNL1        0.2706
      9 O          59.1781   87.7585    7.9879 O.2     1  UNL1       -0.2680
     10 H          60.9809   90.5987    8.9003 H       1  UNL1        0.1553
     11 C          59.4913   89.9597    6.6438 C.ar    1  UNL1        0.1764
     12 C          60.5265   90.6342    5.7933 C.ar    1  UNL1        0.0688
     13 C          59.8190   91.3433    4.6769 C.ar    1  UNL1        0.1945
     14 O          58.3464   91.1071    4.8374 O.2     1  UNL1       -0.3517
     15 N          58.1439   90.2520    6.0530 N.ar    1  UNL1       -0.0722
     16 C          60.4697   92.1474    3.5906 C.ar    1  UNL1        0.1184
     17 C          61.9162   91.9283    3.2593 C.ar    1  UNL1        0.0223
     18 C          62.5669   92.7325    2.1730 C.ar    1  UNL1        0.0032
     19 C          61.7712   93.7557    1.4181 C.ar    1  UNL1        0.0207
     20 C          60.3248   93.9748    1.7495 C.ar    1  UNL1        0.0989
     21 N          59.6740   93.1707    2.8357 N.ar    1  UNL1       -0.2407
     22 C          62.9981   86.6254   12.5443 C.3     1  UNL1        0.1274
     23 C          64.2338   87.2685   13.1006 C.3     1  UNL1        0.0312
     24 C          62.7920   85.1467   12.6893 C.ar    1  UNL1        0.0038
     25 C          62.6677   84.5369   14.0540 C.ar    1  UNL1       -0.0025
     26 C          62.4616   83.0583   14.1989 C.ar    1  UNL1        0.0036
     27 C          62.3798   82.1893   12.9790 C.ar    1  UNL1        0.0714
     28 C          62.5042   82.7991   11.6142 C.ar    1  UNL1        0.0074
     29 C          62.7103   84.2777   11.4693 C.ar    1  UNL1        0.0692
     30 C          62.1737   80.7106   13.1239 C.3     1  UNL1        0.4186
     31 F          61.9676   79.2319   13.2688 F       1  UNL1       -0.1659
     32 F          62.8148   80.4901   11.7858 F       1  UNL1       -0.1659
     33 F          61.5327   80.9311   14.4619 F       1  UNL1       -0.1659
     34 C          62.8346   84.8875   10.1044 C.3     1  UNL1        0.4183
     35 F          62.9590   85.4973    8.7397 F       1  UNL1       -0.1659
     36 F          64.2842   84.5042   10.0653 F       1  UNL1       -0.1659
     37 F          61.3850   85.2709   10.1436 F       1  UNL1       -0.1659
@<TRIPOS>BOND
     1     1     2    1
     2     2     3   ar
     3     3     4   ar
     4     4    22    1
     5    22    23    1
     6    22    24    1
     7    24    25   ar
     8    25    26   ar
     9    26    27   ar
    10    27    30    1
    11    30    31    1
    12    30    32    1
    13    30    33    1
    14    27    28   ar
    15    28    29   ar
    16    29    34    1
    17    34    35    1
    18    34    36    1
    19    34    37    1
    20     4     5   ar
    21     5     6   ar
    22     6     7    1
    23     7     8   am
    24     8     9    2
    25     8    11    1
    26    11    12   ar
    27    12    13   ar
    28    13    16    1
    29    16    17   ar
    30    17    18   ar
    31    18    19   ar
    32    19    20   ar
    33    20    21   ar
    34    13    14   ar
    35    14    15   ar
    36     6     2   ar
    37    15    11   ar
    38    29    24   ar
    39    21    16   ar
    40     7    10    1
@<TRIPOS>MOLECULE
*****
 37 40 0 0 0
SMALL
GASTEIGER

@<TRIPOS>ATOM
      1 C          57.1279   91.0677    5.4875 C.3     1  UNL1        0.0553
      2 C          58.4177   91.4648    4.8328 C.ar    1  UNL1        0.0939
      3 N          58.5587   92.1486    3.5052 N.ar    1  UNL1       -0.1721
      4 N          60.0212   92.3543    3.2427 N.ar    1  UNL1       -0.2463
      5 C          60.7840   91.7977    4.4081 C.ar    1  UNL1        0.1112
      6 C          59.7931   91.2479    5.3908 C.ar    1  UNL1        0.0850
      7 N          60.1201   90.5958    6.7015 N.am    1  UNL1       -0.2769
      8 C          59.7292   89.1687    6.9473 C.2     1  UNL1        0.2706
      9 O          59.0112   88.3937    5.8825 O.2     1  UNL1       -0.2680
     10 H          60.5913   91.1045    7.4004 H       1  UNL1        0.1553
     11 C          60.0562   88.5166    8.2579 C.ar    1  UNL1        0.1764
     12 C          61.0012   87.3695    8.4604 C.ar    1  UNL1        0.0688
     13 C          61.0247   87.0410    9.9238 C.ar    1  UNL1        0.1945
     14 O          60.0942   87.9851   10.6257 O.2     1  UNL1       -0.3517
     15 N          59.4956   88.8971    9.5962 N.ar    1  UNL1       -0.0722
     16 C          61.8362   85.9584   10.5715 C.ar    1  UNL1        0.1184
     17 C          62.6627   85.0338    9.7276 C.ar    1  UNL1        0.0223
     18 C          63.4742   83.9513   10.3753 C.ar    1  UNL1        0.0032
     19 C          63.4592   83.7933   11.8670 C.ar    1  UNL1        0.0207
     20 C          62.6328   84.7179   12.7108 C.ar    1  UNL1        0.0989
     21 N          61.8213   85.8005   12.0631 N.ar    1  UNL1       -0.2407
     22 C          60.6163   93.0028    2.0280 C.3     1  UNL1        0.1274
     23 C          62.0973   92.9465    1.7974 C.3     1  UNL1        0.0312
     24 C          59.7302   93.7077    1.0440 C.ar    1  UNL1        0.0038
     25 C          58.7195   92.9303    0.2540 C.ar    1  UNL1       -0.0025
     26 C          57.8335   93.6352   -0.7299 C.ar    1  UNL1        0.0036
     27 C          57.9582   95.1173   -0.9238 C.ar    1  UNL1        0.0714
     28 C          58.9689   95.8947   -0.1338 C.ar    1  UNL1        0.0074
     29 C          59.8549   95.1898    0.8501 C.ar    1  UNL1        0.0692
     30 C          57.0721   95.8222   -1.9078 C.3     1  UNL1        0.4186
     31 F          56.1861   96.5269   -2.8918 F       1  UNL1       -0.1659
     32 F          58.2779   96.2307   -2.7010 F       1  UNL1       -0.1659
     33 F          55.8664   95.4136   -1.1147 F       1  UNL1       -0.1659
     34 C          60.8657   95.9672    1.6402 C.3     1  UNL1        0.4183
     35 F          61.8764   96.7445    2.4303 F       1  UNL1       -0.1659
     36 F          59.9099   96.0369    2.7942 F       1  UNL1       -0.1659
     37 F          61.8214   95.8974    0.4862 F       1  UNL1       -0.1659
@<TRIPOS>BOND
     1     1     2    1
     2     2     3   ar
     3     3     4   ar
     4     4    22    1
     5    22    23    1
     6    22    24    1
     7    24    25   ar
     8    25    26   ar
     9    26    27   ar
    10    27    30    1
    11    30    31    1
    12    30    32    1
    13    30    33    1
    14    27    28   ar
    15    28    29   ar
    16    29    34    1
    17    34    35    1
    18    34    36    1
    19    34    37    1
    20     4     5   ar
    21     5     6   ar
    22     6     7    1
    23     7     8   am
    24     8     9    2
    25     8    11    1
    26    11    12   ar
    27    12    13   ar
    28    13    16    1
    29    16    17   ar
    30    17    18   ar
    31    18    19   ar
    32    19    20   ar
    33    20    21   ar
    34    13    14   ar
    35    14    15   ar
    36     6     2   ar
    37    15    11   ar
    38    29    24   ar
    39    21    16   ar
    40     7    10    1
@<TRIPOS>MOLECULE
*****
 37 40 0 0 0
SMALL
GASTEIGER

@<TRIPOS>ATOM
      1 C          57.1020   91.2342    5.3713 C.3     1  UNL1        0.0553
      2 C          58.3724   91.5991    4.6621 C.ar    1  UNL1        0.0939
      3 N          58.4758   92.1987    3.2910 N.ar    1  UNL1       -0.1721
      4 N          59.9297   92.3988    2.9810 N.ar    1  UNL1       -0.2463
      5 C          60.7249   91.9229    4.1605 C.ar    1  UNL1        0.1112
      6 C          59.7624   91.4287    5.1995 C.ar    1  UNL1        0.0850
      7 N          60.1262   90.8633    6.5404 N.am    1  UNL1       -0.2769
      8 C          59.7445   89.4554    6.8892 C.2     1  UNL1        0.2706
      9 O          58.9990   88.6127    5.8972 O.2     1  UNL1       -0.2680
     10 H          60.6154   91.4164    7.1915 H       1  UNL1        0.1553
     11 C          60.1082   88.8900    8.2302 C.ar    1  UNL1        0.1764
     12 C          61.1907   89.3967    9.1364 C.ar    1  UNL1        0.0688
     13 C          61.2049   88.5386   10.3666 C.ar    1  UNL1        0.1945
     14 O          60.1311   87.5015   10.2206 O.2     1  UNL1       -0.3517
     15 N          59.4533   87.7186    8.9002 N.ar    1  UNL1       -0.0722
     16 C          62.1304   88.6908   11.5373 C.ar    1  UNL1        0.1184
     17 C          62.4323   90.0554   12.0821 C.ar    1  UNL1        0.0223
     18 C          63.3577   90.2077   13.2527 C.ar    1  UNL1        0.0032
     19 C          63.9813   88.9953   13.8785 C.ar    1  UNL1        0.0207
     20 C          63.6793   87.6308   13.3336 C.ar    1  UNL1        0.0989
     21 N          62.7539   87.4786   12.1630 N.ar    1  UNL1       -0.2407
     22 C          60.4901   92.9738    1.7139 C.3     1  UNL1        0.1274
     23 C          61.9373   92.7728    1.3749 C.3     1  UNL1        0.0312
     24 C          59.6031   93.7498    0.7859 C.ar    1  UNL1        0.0038
     25 C          58.5526   93.0401   -0.0158 C.ar    1  UNL1       -0.0025
     26 C          57.6657   93.8161   -0.9437 C.ar    1  UNL1        0.0036
     27 C          57.8292   95.3018   -1.0699 C.ar    1  UNL1        0.0714
     28 C          58.8797   96.0115   -0.2682 C.ar    1  UNL1        0.0074
     29 C          59.7666   95.2355    0.6597 C.ar    1  UNL1        0.0692
     30 C          56.9422   96.0779   -1.9979 C.3     1  UNL1        0.4186
     31 F          56.0553   96.8538   -2.9258 F       1  UNL1       -0.1659
     32 F          58.1446   96.5179   -2.7793 F       1  UNL1       -0.1659
     33 F          55.7399   95.6379   -1.2165 F       1  UNL1       -0.1659
     34 C          60.8172   95.9452    1.4615 C.3     1  UNL1        0.4183
     35 F          61.8677   96.6548    2.2632 F       1  UNL1       -0.1659
     36 F          59.8914   95.9830    2.6410 F       1  UNL1       -0.1659
     37 F          61.7430   95.9073    0.2819 F       1  UNL1       -0.1659
@<TRIPOS>BOND
     1     1     2    1
     2     2     3   ar
     3     3     4   ar
     4     4    22    1
     5    22    23    1
     6    22    24    1
     7    24    25   ar
     8    25    26   ar
     9    26    27   ar
    10    27    30    1
    11    30    31    1
    12    30    32    1
    13    30    33    1
    14    27    28   ar
    15    28    29   ar
    16    29    34    1
    17    34    35    1
    18    34    36    1
    19    34    37    1
    20     4     5   ar
    21     5     6   ar
    22     6     7    1
    23     7     8   am
    24     8     9    2
    25     8    11    1
    26    11    12   ar
    27    12    13   ar
    28    13    16    1
    29    16    17   ar
    30    17    18   ar
    31    18    19   ar
    32    19    20   ar
    33    20    21   ar
    34    13    14   ar
    35    14    15   ar
    36     6     2   ar
    37    15    11   ar
    38    29    24   ar
    39    21    16   ar
    40     7    10    1
