@<TRIPOS>MOLECULE
*****
 32 35 0 0 0
SMALL
GASTEIGER

@<TRIPOS>ATOM
      1 O          63.1600   88.4711   15.8032 O.2     1  UNL1       -0.2696
      2 C          63.8340   88.0422   14.5337 C.2     1  UNL1        0.2522
      3 N          64.2010   89.0629   13.4976 N.am    1  UNL1       -0.2939
      4 H          64.6434   88.7814   12.6643 H       1  UNL1        0.1502
      5 C          64.1410   86.5926   14.3002 C.ar    1  UNL1        0.0828
      6 C          65.1073   85.7581   15.0876 C.ar    1  UNL1        0.0115
      7 C          65.0992   84.3728   14.5124 C.ar    1  UNL1        0.0071
      8 C          64.1279   84.3511   13.3695 C.ar    1  UNL1        0.0296
      9 S          63.5357   85.7231   13.2384 S.2     1  UNL1       -0.0824
     10 C          63.8053   83.1657   12.5089 C.ar    1  UNL1        0.0061
     11 C          64.2138   83.1534   11.0656 C.ar    1  UNL1        0.0014
     12 C          63.8912   81.9679   10.2050 C.ar    1  UNL1        0.0114
     13 C          63.1602   80.7948   10.7876 C.ar    1  UNL1        0.0577
     14 CL         62.8377   79.6093    9.9270 Cl      1  UNL1       -0.0822
     15 C          62.7518   80.8072   12.2309 C.ar    1  UNL1        0.0114
     16 C          63.0744   81.9926   13.0916 C.ar    1  UNL1        0.0014
     17 C          63.8940   90.5125   13.7310 C.3     1  UNL1        0.1569
     18 C          64.4301   91.2061   14.9482 C.2     1  UNL1        0.1927
     19 O          63.5504   91.4045   16.1468 O.2     1  UNL1       -0.2895
     20 C          65.8459   91.7013   14.9667 C.ar    1  UNL1        0.0386
     21 C          66.3443   92.5047   16.1312 C.ar    1  UNL1        0.0030
     22 C          67.7600   92.9998   16.1497 C.ar    1  UNL1        0.0024
     23 C          68.6774   92.6917   15.0036 C.ar    1  UNL1        0.0296
     24 C          68.1790   91.8883   13.8391 C.ar    1  UNL1        0.1402
     25 F          69.0964   91.5801   12.6930 F       1  UNL1       -0.2042
     26 C          66.7633   91.3931   13.8206 C.ar    1  UNL1        0.0325
     27 C          63.0508   91.2684   12.7473 C.3     1  UNL1        0.1350
     28 N          62.2466   90.5254   11.7220 N.ar    1  UNL1       -0.3057
     29 C          60.9489   89.8138   11.9657 C.ar    1  UNL1        0.0981
     30 C          60.4992   89.2121   10.6673 C.ar    1  UNL1        0.1193
     31 N          61.5190   89.5519    9.6212 N.ar    1  UNL1       -0.2223
     32 C          62.5991   90.3635   10.2729 C.ar    1  UNL1        0.1787
@<TRIPOS>BOND
     1     1     2    2
     2     2     3   am
     3     3    17    1
     4    17    27    1
     5    27    28    1
     6    28    29   ar
     7    29    30   ar
     8    30    31   ar
     9    31    32   ar
    10    17    18    1
    11    18    19    2
    12    18    20    1
    13    20    21   ar
    14    21    22   ar
    15    22    23   ar
    16    23    24   ar
    17    24    25    1
    18    24    26   ar
    19     2     5    1
    20     5     6   ar
    21     6     7   ar
    22     7     8   ar
    23     8    10    1
    24    10    11   ar
    25    11    12   ar
    26    12    13   ar
    27    13    14    1
    28    13    15   ar
    29    15    16   ar
    30     8     9   ar
    31    32    28   ar
    32    26    20   ar
    33     9     5   ar
    34    16    10   ar
    35     3     4    1
@<TRIPOS>MOLECULE
*****
 32 35 0 0 0
SMALL
GASTEIGER

@<TRIPOS>ATOM
      1 O          63.1871   90.9505   14.1914 O.2     1  UNL1       -0.2696
      2 C          63.3780   90.7715   12.7144 C.2     1  UNL1        0.2522
      3 N          64.5323   91.4332   12.0217 N.am    1  UNL1       -0.2939
      4 H          64.6575   91.3157   11.0523 H       1  UNL1        0.1502
      5 C          62.4146   89.9308   11.9301 C.ar    1  UNL1        0.0828
      6 C          60.9203   89.9498   12.0590 C.ar    1  UNL1        0.0115
      7 C          60.3585   88.9542   11.0878 C.ar    1  UNL1        0.0071
      8 C          61.5057   88.3199   10.3587 C.ar    1  UNL1        0.0296
      9 S          62.7764   88.9234   10.8792 S.2     1  UNL1       -0.0824
     10 C          61.4006   87.2669    9.2956 C.ar    1  UNL1        0.0061
     11 C          62.5827   86.3989    8.9801 C.ar    1  UNL1        0.0014
     12 C          62.4776   85.3459    7.9171 C.ar    1  UNL1        0.0114
     13 C          61.1905   85.1609    7.1694 C.ar    1  UNL1        0.0577
     14 CL         61.0853   84.1078    6.1063 Cl      1  UNL1       -0.0822
     15 C          60.0084   86.0288    7.4849 C.ar    1  UNL1        0.0114
     16 C          60.1135   87.0818    8.5479 C.ar    1  UNL1        0.0014
     17 C          65.4956   92.2739   12.8060 C.3     1  UNL1        0.1569
     18 C          66.0217   93.5523   12.2239 C.2     1  UNL1        0.1927
     19 O          65.7843   94.8527   12.9328 O.2     1  UNL1       -0.2895
     20 C          66.7851   93.5304   10.9329 C.ar    1  UNL1        0.0386
     21 C          67.5441   92.3005   10.5312 C.ar    1  UNL1        0.0030
     22 C          68.3075   92.2787    9.2402 C.ar    1  UNL1        0.0024
     23 C          68.3118   93.4866    8.3509 C.ar    1  UNL1        0.0296
     24 C          67.5528   94.7164    8.7525 C.ar    1  UNL1        0.1402
     25 F          67.5572   95.9243    7.8632 F       1  UNL1       -0.2042
     26 C          66.7894   94.7383   10.0435 C.ar    1  UNL1        0.0325
     27 C          65.9330   91.8361   14.1725 C.3     1  UNL1        0.1350
     28 N          67.2234   92.3429   14.7452 N.ar    1  UNL1       -0.3057
     29 C          67.3754   93.1394   16.0071 C.ar    1  UNL1        0.0981
     30 C          68.8343   93.4311   16.1983 C.ar    1  UNL1        0.1193
     31 N          69.5840   92.8148   15.0545 N.ar    1  UNL1       -0.2223
     32 C          68.5884   92.1423   14.1564 C.ar    1  UNL1        0.1787
@<TRIPOS>BOND
     1     1     2    2
     2     2     3   am
     3     3    17    1
     4    17    27    1
     5    27    28    1
     6    28    29   ar
     7    29    30   ar
     8    30    31   ar
     9    31    32   ar
    10    17    18    1
    11    18    19    2
    12    18    20    1
    13    20    21   ar
    14    21    22   ar
    15    22    23   ar
    16    23    24   ar
    17    24    25    1
    18    24    26   ar
    19     2     5    1
    20     5     6   ar
    21     6     7   ar
    22     7     8   ar
    23     8    10    1
    24    10    11   ar
    25    11    12   ar
    26    12    13   ar
    27    13    14    1
    28    13    15   ar
    29    15    16   ar
    30     8     9   ar
    31    32    28   ar
    32    26    20   ar
    33     9     5   ar
    34    16    10   ar
    35     3     4    1
@<TRIPOS>MOLECULE
*****
 32 35 0 0 0
SMALL
GASTEIGER

@<TRIPOS>ATOM
      1 O          63.1823   88.7283   15.9433 O.2     1  UNL1       -0.2696
      2 C          63.9192   88.0711   14.8142 C.2     1  UNL1        0.2522
      3 N          64.6517   88.9087   13.8082 N.am    1  UNL1       -0.2939
      4 H          65.1354   88.4773   13.0672 H       1  UNL1        0.1502
      5 C          63.9237   86.5761   14.6910 C.ar    1  UNL1        0.0828
      6 C          64.2049   85.6012   15.7957 C.ar    1  UNL1        0.0115
      7 C          64.1028   84.2162   15.2289 C.ar    1  UNL1        0.0071
      8 C          63.7584   84.3351   13.7738 C.ar    1  UNL1        0.0296
      9 S          63.6477   85.7936   13.4413 S.2     1  UNL1       -0.0824
     10 C          63.5596   83.1956   12.8189 C.ar    1  UNL1        0.0061
     11 C          64.0129   83.3228   11.3946 C.ar    1  UNL1        0.0014
     12 C          63.8141   82.1833   10.4397 C.ar    1  UNL1        0.0114
     13 C          63.1620   80.9166   10.9089 C.ar    1  UNL1        0.0577
     14 CL         62.9632   79.7770    9.9539 Cl      1  UNL1       -0.0822
     15 C          62.7087   80.7894   12.3331 C.ar    1  UNL1        0.0114
     16 C          62.9075   81.9289   13.2881 C.ar    1  UNL1        0.0014
     17 C          64.6472   90.4036   13.9314 C.3     1  UNL1        0.1569
     18 C          64.1154   91.2470   12.8108 C.2     1  UNL1        0.1927
     19 O          64.7017   92.6025   12.5487 O.2     1  UNL1       -0.2895
     20 C          62.9970   90.7347   11.9522 C.ar    1  UNL1        0.0386
     21 C          63.1276   90.7576   10.4581 C.ar    1  UNL1        0.0030
     22 C          62.0094   90.2455    9.5996 C.ar    1  UNL1        0.0024
     23 C          60.7605   89.7104   10.2352 C.ar    1  UNL1        0.0296
     24 C          60.6299   89.6875   11.7293 C.ar    1  UNL1        0.1402
     25 F          59.3810   89.1524   12.3649 F       1  UNL1       -0.2042
     26 C          61.7482   90.1997   12.5878 C.ar    1  UNL1        0.0325
     27 C          65.1747   91.0552   15.1754 C.3     1  UNL1        0.1350
     28 N          66.4689   91.8124   15.1344 N.ar    1  UNL1       -0.3057
     29 C          66.9108   92.8570   16.1160 C.ar    1  UNL1        0.0981
     30 C          68.2635   93.3481   15.6928 C.ar    1  UNL1        0.1193
     31 N          68.6577   92.6070   14.4497 N.ar    1  UNL1       -0.2223
     32 C          67.5486   91.6579   14.1045 C.ar    1  UNL1        0.1787
@<TRIPOS>BOND
     1     1     2    2
     2     2     3   am
     3     3    17    1
     4    17    27    1
     5    27    28    1
     6    28    29   ar
     7    29    30   ar
     8    30    31   ar
     9    31    32   ar
    10    17    18    1
    11    18    19    2
    12    18    20    1
    13    20    21   ar
    14    21    22   ar
    15    22    23   ar
    16    23    24   ar
    17    24    25    1
    18    24    26   ar
    19     2     5    1
    20     5     6   ar
    21     6     7   ar
    22     7     8   ar
    23     8    10    1
    24    10    11   ar
    25    11    12   ar
    26    12    13   ar
    27    13    14    1
    28    13    15   ar
    29    15    16   ar
    30     8     9   ar
    31    32    28   ar
    32    26    20   ar
    33     9     5   ar
    34    16    10   ar
    35     3     4    1
@<TRIPOS>MOLECULE
*****
 32 35 0 0 0
SMALL
GASTEIGER

@<TRIPOS>ATOM
      1 O          61.4011   90.0253   14.1656 O.2     1  UNL1       -0.2696
      2 C          62.2657   89.9110   12.9452 C.2     1  UNL1        0.2522
      3 N          63.7078   90.3192   13.0067 N.am    1  UNL1       -0.2939
      4 H          64.2753   90.2441   12.2057 H       1  UNL1        0.1502
      5 C          61.6882   89.3885   11.6632 C.ar    1  UNL1        0.0828
      6 C          60.5739   90.0147   10.8783 C.ar    1  UNL1        0.0115
      7 C          60.3206   89.1613    9.6710 C.ar    1  UNL1        0.0071
      8 C          61.2784   88.0075    9.7098 C.ar    1  UNL1        0.0296
      9 S          62.1237   88.1479   10.9410 S.2     1  UNL1       -0.0824
     10 C          61.3743   86.9067    8.6954 C.ar    1  UNL1        0.0061
     11 C          60.1970   86.5862    7.8229 C.ar    1  UNL1        0.0014
     12 C          60.2928   85.4853    6.8085 C.ar    1  UNL1        0.0114
     13 C          61.5659   84.7049    6.6668 C.ar    1  UNL1        0.0577
     14 CL         61.6618   83.6040    5.6524 Cl      1  UNL1       -0.0822
     15 C          62.7432   85.0254    7.5393 C.ar    1  UNL1        0.0114
     16 C          62.6474   86.1263    8.5536 C.ar    1  UNL1        0.0014
     17 C          64.2853   90.8417   14.2887 C.3     1  UNL1        0.1569
     18 C          63.8526   90.2557   15.6000 C.2     1  UNL1        0.1927
     19 O          63.4692   91.1586   16.7348 O.2     1  UNL1       -0.2895
     20 C          63.8034   88.7669   15.7764 C.ar    1  UNL1        0.0386
     21 C          64.4628   87.8703   14.7709 C.ar    1  UNL1        0.0030
     22 C          64.4135   86.3815   14.9474 C.ar    1  UNL1        0.0024
     23 C          63.7048   85.7895   16.1294 C.ar    1  UNL1        0.0296
     24 C          63.0454   86.6861   17.1350 C.ar    1  UNL1        0.1402
     25 F          62.3367   86.0940   18.3170 F       1  UNL1       -0.2042
     26 C          63.0947   88.1748   16.9585 C.ar    1  UNL1        0.0325
     27 C          65.2955   91.9502   14.2594 C.3     1  UNL1        0.1350
     28 N          66.1499   92.1542   13.0435 N.ar    1  UNL1       -0.3057
     29 C          65.6940   92.7167   11.7298 C.ar    1  UNL1        0.0981
     30 C          66.8726   92.7418   10.8023 C.ar    1  UNL1        0.1193
     31 N          68.0569   92.1948   11.5427 N.ar    1  UNL1       -0.2223
     32 C          67.6103   91.8317   12.9279 C.ar    1  UNL1        0.1787
@<TRIPOS>BOND
     1     1     2    2
     2     2     3   am
     3     3    17    1
     4    17    27    1
     5    27    28    1
     6    28    29   ar
     7    29    30   ar
     8    30    31   ar
     9    31    32   ar
    10    17    18    1
    11    18    19    2
    12    18    20    1
    13    20    21   ar
    14    21    22   ar
    15    22    23   ar
    16    23    24   ar
    17    24    25    1
    18    24    26   ar
    19     2     5    1
    20     5     6   ar
    21     6     7   ar
    22     7     8   ar
    23     8    10    1
    24    10    11   ar
    25    11    12   ar
    26    12    13   ar
    27    13    14    1
    28    13    15   ar
    29    15    16   ar
    30     8     9   ar
    31    32    28   ar
    32    26    20   ar
    33     9     5   ar
    34    16    10   ar
    35     3     4    1
@<TRIPOS>MOLECULE
*****
 32 35 0 0 0
SMALL
GASTEIGER

@<TRIPOS>ATOM
      1 O          61.9454   89.6453   13.3325 O.2     1  UNL1       -0.2696
      2 C          62.9803   89.7353   12.2505 C.2     1  UNL1        0.2522
      3 N          63.0447   88.6817   11.1847 N.am    1  UNL1       -0.2939
      4 H          63.7240   88.7408   10.4746 H       1  UNL1        0.1502
      5 C          63.9509   90.8789   12.2343 C.ar    1  UNL1        0.0828
      6 C          64.7134   91.4050   13.4140 C.ar    1  UNL1        0.0115
      7 C          65.5632   92.5484   12.9442 C.ar    1  UNL1        0.0071
      8 C          65.3258   92.7289   11.4742 C.ar    1  UNL1        0.0296
      9 S          64.3293   91.6971   11.0353 S.2     1  UNL1       -0.0824
     10 C          65.9714   93.7602   10.5969 C.ar    1  UNL1        0.0061
     11 C          67.1078   93.3743    9.6972 C.ar    1  UNL1        0.0014
     12 C          67.7535   94.4055    8.8199 C.ar    1  UNL1        0.0114
     13 C          67.2627   95.8228    8.8424 C.ar    1  UNL1        0.0577
     14 CL         67.9083   96.8541    7.9651 Cl      1  UNL1       -0.0822
     15 C          66.1262   96.2087    9.7422 C.ar    1  UNL1        0.0114
     16 C          65.4806   95.1774   10.6194 C.ar    1  UNL1        0.0014
     17 C          62.0742   87.5381   11.2010 C.3     1  UNL1        0.1569
     18 C          62.5659   86.1404   11.4343 C.2     1  UNL1        0.1927
     19 O          62.6264   85.1666   10.2949 O.2     1  UNL1       -0.2895
     20 C          62.9971   85.7163   12.8070 C.ar    1  UNL1        0.0386
     21 C          63.9161   86.5903   13.6079 C.ar    1  UNL1        0.0030
     22 C          64.3473   86.1662   14.9805 C.ar    1  UNL1        0.0024
     23 C          63.8596   84.8681   15.5522 C.ar    1  UNL1        0.0296
     24 C          62.9406   83.9940   14.7513 C.ar    1  UNL1        0.1402
     25 F          62.4529   82.6958   15.3231 F       1  UNL1       -0.2042
     26 C          62.5094   84.4181   13.3787 C.ar    1  UNL1        0.0325
     27 C          60.6118   87.7924   10.9840 C.3     1  UNL1        0.1350
     28 N          60.0771   87.9534    9.5918 N.ar    1  UNL1       -0.3057
     29 C          59.3906   86.8930    8.7829 C.ar    1  UNL1        0.0981
     30 C          59.0242   87.4873    7.4552 C.ar    1  UNL1        0.1193
     31 N          59.4843   88.9150    7.4437 N.ar    1  UNL1       -0.2223
     32 C          60.1350   89.2031    8.7641 C.ar    1  UNL1        0.1787
@<TRIPOS>BOND
     1     1     2    2
     2     2     3   am
     3     3    17    1
     4    17    27    1
     5    27    28    1
     6    28    29   ar
     7    29    30   ar
     8    30    31   ar
     9    31    32   ar
    10    17    18    1
    11    18    19    2
    12    18    20    1
    13    20    21   ar
    14    21    22   ar
    15    22    23   ar
    16    23    24   ar
    17    24    25    1
    18    24    26   ar
    19     2     5    1
    20     5     6   ar
    21     6     7   ar
    22     7     8   ar
    23     8    10    1
    24    10    11   ar
    25    11    12   ar
    26    12    13   ar
    27    13    14    1
    28    13    15   ar
    29    15    16   ar
    30     8     9   ar
    31    32    28   ar
    32    26    20   ar
    33     9     5   ar
    34    16    10   ar
    35     3     4    1
@<TRIPOS>MOLECULE
*****
 32 35 0 0 0
SMALL
GASTEIGER

@<TRIPOS>ATOM
      1 O          62.4251   89.9765   10.8007 O.2     1  UNL1       -0.2696
      2 C          62.7966   89.1622   12.0043 C.2     1  UNL1        0.2522
      3 N          62.4269   87.7099   12.0706 N.am    1  UNL1       -0.2939
      4 H          62.6707   87.1754   12.8606 H       1  UNL1        0.1502
      5 C          63.5378   89.8001   13.1418 C.ar    1  UNL1        0.0828
      6 C          63.1133   89.8013   14.5804 C.ar    1  UNL1        0.0115
      7 C          64.1467   90.5507   15.3681 C.ar    1  UNL1        0.0071
      8 C          65.2100   91.0126   14.4162 C.ar    1  UNL1        0.0296
      9 S          64.8337   90.5488   13.0402 S.2     1  UNL1       -0.0824
     10 C          66.4345   91.8002   14.7769 C.ar    1  UNL1        0.0061
     11 C          66.4339   92.6699   15.9990 C.ar    1  UNL1        0.0014
     12 C          67.6585   93.4575   16.3597 C.ar    1  UNL1        0.0114
     13 C          68.8837   93.3754   15.4982 C.ar    1  UNL1        0.0577
     14 CL         70.1084   94.1630   15.8589 Cl      1  UNL1       -0.0822
     15 C          68.8843   92.5057   14.2761 C.ar    1  UNL1        0.0114
     16 C          67.6597   91.7181   13.9154 C.ar    1  UNL1        0.0014
     17 C          61.6857   87.0721   10.9331 C.3     1  UNL1        0.1569
     18 C          62.3730   86.0624   10.0624 C.2     1  UNL1        0.1927
     19 O          62.5936   86.3530    8.6075 O.2     1  UNL1       -0.2895
     20 C          62.8397   84.7620   10.6467 C.ar    1  UNL1        0.0386
     21 C          63.7046   83.8430    9.8359 C.ar    1  UNL1        0.0030
     22 C          64.1713   82.5427   10.4202 C.ar    1  UNL1        0.0024
     23 C          63.7730   82.1614   11.8152 C.ar    1  UNL1        0.0296
     24 C          62.9081   83.0804   12.6259 C.ar    1  UNL1        0.1402
     25 F          62.5099   82.6991   14.0209 F       1  UNL1       -0.2042
     26 C          62.4415   84.3807   12.0417 C.ar    1  UNL1        0.0325
     27 C          60.2572   87.4439   10.6664 C.3     1  UNL1        0.1350
     28 N          59.8187   87.7855    9.2732 N.ar    1  UNL1       -0.3057
     29 C          60.0502   89.0907    8.5711 C.ar    1  UNL1        0.0981
     30 C          59.4464   88.9938    7.2014 C.ar    1  UNL1        0.1193
     31 N          58.8416   87.6287    7.0570 N.ar    1  UNL1       -0.2223
     32 C          59.0717   86.8819    8.3374 C.ar    1  UNL1        0.1787
@<TRIPOS>BOND
     1     1     2    2
     2     2     3   am
     3     3    17    1
     4    17    27    1
     5    27    28    1
     6    28    29   ar
     7    29    30   ar
     8    30    31   ar
     9    31    32   ar
    10    17    18    1
    11    18    19    2
    12    18    20    1
    13    20    21   ar
    14    21    22   ar
    15    22    23   ar
    16    23    24   ar
    17    24    25    1
    18    24    26   ar
    19     2     5    1
    20     5     6   ar
    21     6     7   ar
    22     7     8   ar
    23     8    10    1
    24    10    11   ar
    25    11    12   ar
    26    12    13   ar
    27    13    14    1
    28    13    15   ar
    29    15    16   ar
    30     8     9   ar
    31    32    28   ar
    32    26    20   ar
    33     9     5   ar
    34    16    10   ar
    35     3     4    1
@<TRIPOS>MOLECULE
*****
 32 35 0 0 0
SMALL
GASTEIGER

@<TRIPOS>ATOM
      1 O          62.5650   89.5005   14.2368 O.2     1  UNL1       -0.2696
      2 C          63.5203   89.6101   13.0856 C.2     1  UNL1        0.2522
      3 N          63.5781   88.5237   12.0528 N.am    1  UNL1       -0.2939
      4 H          64.2052   88.5957   11.2973 H       1  UNL1        0.1502
      5 C          64.4180   90.8060   12.9671 C.ar    1  UNL1        0.0828
      6 C          65.2287   91.4130   14.0736 C.ar    1  UNL1        0.0115
      7 C          65.9743   92.5871   13.5117 C.ar    1  UNL1        0.0071
      8 C          65.6243   92.7057   12.0579 C.ar    1  UNL1        0.0296
      9 S          64.6624   91.6050   11.7213 S.2     1  UNL1       -0.0824
     10 C          66.1447   93.7430   11.1075 C.ar    1  UNL1        0.0061
     11 C          66.8932   93.3244    9.8768 C.ar    1  UNL1        0.0014
     12 C          67.4137   94.3617    8.9264 C.ar    1  UNL1        0.0114
     13 C          67.1857   95.8175    9.2068 C.ar    1  UNL1        0.0577
     14 CL         67.7061   96.8548    8.2564 Cl      1  UNL1       -0.0822
     15 C          66.4372   96.2360   10.4375 C.ar    1  UNL1        0.0114
     16 C          65.9167   95.1988   11.3879 C.ar    1  UNL1        0.0014
     17 C          62.6805   87.3278   12.1713 C.3     1  UNL1        0.1569
     18 C          63.1158   86.1403   12.9776 C.2     1  UNL1        0.1927
     19 O          63.5559   86.3201   14.4003 O.2     1  UNL1       -0.2895
     20 C          63.1111   84.7727   12.3612 C.ar    1  UNL1        0.0386
     21 C          63.6046   84.5809   10.9578 C.ar    1  UNL1        0.0030
     22 C          63.5999   83.2134   10.3415 C.ar    1  UNL1        0.0024
     23 C          63.1016   82.0377   11.1286 C.ar    1  UNL1        0.0296
     24 C          62.6081   82.2295   12.5320 C.ar    1  UNL1        0.1402
     25 F          62.1099   81.0538   13.3190 F       1  UNL1       -0.2042
     26 C          62.6129   83.5970   13.1483 C.ar    1  UNL1        0.0325
     27 C          61.3475   87.3195   11.4835 C.3     1  UNL1        0.1350
     28 N          60.6312   88.6110   11.2204 N.ar    1  UNL1       -0.3057
     29 C          59.7599   89.3498   12.1924 C.ar    1  UNL1        0.0981
     30 C          59.2507   90.5858   11.5118 C.ar    1  UNL1        0.1193
     31 N          59.8074   90.6108   10.1191 N.ar    1  UNL1       -0.2223
     32 C          60.6607   89.3903    9.9390 C.ar    1  UNL1        0.1787
@<TRIPOS>BOND
     1     1     2    2
     2     2     3   am
     3     3    17    1
     4    17    27    1
     5    27    28    1
     6    28    29   ar
     7    29    30   ar
     8    30    31   ar
     9    31    32   ar
    10    17    18    1
    11    18    19    2
    12    18    20    1
    13    20    21   ar
    14    21    22   ar
    15    22    23   ar
    16    23    24   ar
    17    24    25    1
    18    24    26   ar
    19     2     5    1
    20     5     6   ar
    21     6     7   ar
    22     7     8   ar
    23     8    10    1
    24    10    11   ar
    25    11    12   ar
    26    12    13   ar
    27    13    14    1
    28    13    15   ar
    29    15    16   ar
    30     8     9   ar
    31    32    28   ar
    32    26    20   ar
    33     9     5   ar
    34    16    10   ar
    35     3     4    1
@<TRIPOS>MOLECULE
*****
 32 35 0 0 0
SMALL
GASTEIGER

@<TRIPOS>ATOM
      1 O          62.6506   90.0505   14.2271 O.2     1  UNL1       -0.2696
      2 C          63.6287   89.2032   13.4686 C.2     1  UNL1        0.2522
      3 N          64.3948   89.7885   12.3194 N.am    1  UNL1       -0.2939
      4 H          65.0367   89.2323   11.8216 H       1  UNL1        0.1502
      5 C          63.8407   87.7706   13.8593 C.ar    1  UNL1        0.0828
      6 C          64.6272   87.2861   15.0412 C.ar    1  UNL1        0.0115
      7 C          64.5761   85.7870   15.0490 C.ar    1  UNL1        0.0071
      8 C          63.7580   85.3449   13.8720 C.ar    1  UNL1        0.0296
      9 S          63.3035   86.5708   13.1367 S.2     1  UNL1       -0.0824
     10 C          63.4487   83.9261   13.4962 C.ar    1  UNL1        0.0061
     11 C          64.0053   83.3474   12.2291 C.ar    1  UNL1        0.0014
     12 C          63.6960   81.9286   11.8533 C.ar    1  UNL1        0.0114
     13 C          62.8301   81.0884   12.7446 C.ar    1  UNL1        0.0577
     14 CL         62.5208   79.6695   12.3688 Cl      1  UNL1       -0.0822
     15 C          62.2736   81.6671   14.0117 C.ar    1  UNL1        0.0114
     16 C          62.5829   83.0859   14.3875 C.ar    1  UNL1        0.0014
     17 C          64.1827   91.2211   11.9287 C.3     1  UNL1        0.1569
     18 C          65.1423   92.2755   12.3949 C.2     1  UNL1        0.1927
     19 O          65.2548   92.5939   13.8564 O.2     1  UNL1       -0.2895
     20 C          65.9894   93.0116   11.3996 C.ar    1  UNL1        0.0386
     21 C          65.8596   94.4993   11.2590 C.ar    1  UNL1        0.0030
     22 C          66.7067   95.2353   10.2637 C.ar    1  UNL1        0.0024
     23 C          67.6836   94.4836    9.4090 C.ar    1  UNL1        0.0296
     24 C          67.8134   92.9959    9.5495 C.ar    1  UNL1        0.1402
     25 F          68.7903   92.2442    8.6947 F       1  UNL1       -0.2042
     26 C          66.9663   92.2599   10.5448 C.ar    1  UNL1        0.0325
     27 C          63.0110   91.5992   11.0718 C.3     1  UNL1        0.1350
     28 N          62.0015   90.5609   10.6811 N.ar    1  UNL1       -0.3057
     29 C          62.2499   89.3819    9.7876 C.ar    1  UNL1        0.0981
     30 C          60.9682   88.6116    9.6695 C.ar    1  UNL1        0.1193
     31 N          59.9277   89.3144   10.4901 N.ar    1  UNL1       -0.2223
     32 C          60.5662   90.5192   11.1154 C.ar    1  UNL1        0.1787
@<TRIPOS>BOND
     1     1     2    2
     2     2     3   am
     3     3    17    1
     4    17    27    1
     5    27    28    1
     6    28    29   ar
     7    29    30   ar
     8    30    31   ar
     9    31    32   ar
    10    17    18    1
    11    18    19    2
    12    18    20    1
    13    20    21   ar
    14    21    22   ar
    15    22    23   ar
    16    23    24   ar
    17    24    25    1
    18    24    26   ar
    19     2     5    1
    20     5     6   ar
    21     6     7   ar
    22     7     8   ar
    23     8    10    1
    24    10    11   ar
    25    11    12   ar
    26    12    13   ar
    27    13    14    1
    28    13    15   ar
    29    15    16   ar
    30     8     9   ar
    31    32    28   ar
    32    26    20   ar
    33     9     5   ar
    34    16    10   ar
    35     3     4    1
@<TRIPOS>MOLECULE
*****
 32 35 0 0 0
SMALL
GASTEIGER

@<TRIPOS>ATOM
      1 O          61.1235   89.2489   12.4214 O.2     1  UNL1       -0.2696
      2 C          62.5425   89.1101   11.9554 C.2     1  UNL1        0.2522
      3 N          62.9879   87.8508   11.2727 N.am    1  UNL1       -0.2939
      4 H          63.9193   87.7597   10.9669 H       1  UNL1        0.1502
      5 C          63.5161   90.2304   12.1720 C.ar    1  UNL1        0.0828
      6 C          63.6331   91.4707   11.3366 C.ar    1  UNL1        0.0115
      7 C          64.7330   92.3140   11.9104 C.ar    1  UNL1        0.0071
      8 C          65.2957   91.5949   13.1004 C.ar    1  UNL1        0.0296
      9 S          64.5436   90.3072   13.2622 S.2     1  UNL1       -0.0824
     10 C          66.4141   92.0786   13.9752 C.ar    1  UNL1        0.0061
     11 C          67.8339   91.9774   13.5020 C.ar    1  UNL1        0.0014
     12 C          68.9523   92.4610   14.3768 C.ar    1  UNL1        0.0114
     13 C          68.6508   93.0460   15.7248 C.ar    1  UNL1        0.0577
     14 CL         69.7693   93.5297   16.5996 Cl      1  UNL1       -0.0822
     15 C          67.2310   93.1472   16.1979 C.ar    1  UNL1        0.0114
     16 C          66.1126   92.6635   15.3232 C.ar    1  UNL1        0.0014
     17 C          62.0143   86.7305   11.0561 C.3     1  UNL1        0.1569
     18 C          62.4974   85.3106   11.0349 C.2     1  UNL1        0.1927
     19 O          62.6743   84.5980    9.7269 O.2     1  UNL1       -0.2895
     20 C          62.8037   84.6033   12.3218 C.ar    1  UNL1        0.0386
     21 C          62.5178   83.1371   12.4582 C.ar    1  UNL1        0.0030
     22 C          62.8241   82.4299   13.7450 C.ar    1  UNL1        0.0024
     23 C          63.4163   83.1888   14.8954 C.ar    1  UNL1        0.0296
     24 C          63.7022   84.6549   14.7590 C.ar    1  UNL1        0.1402
     25 F          64.2943   85.4138   15.9094 F       1  UNL1       -0.2042
     26 C          63.3959   85.3622   13.4722 C.ar    1  UNL1        0.0325
     27 C          60.5575   87.0301   10.8607 C.3     1  UNL1        0.1350
     28 N          60.0696   87.5523    9.5419 N.ar    1  UNL1       -0.3057
     29 C          59.3729   86.7536    8.4805 C.ar    1  UNL1        0.0981
     30 C          59.0654   87.6726    7.3356 C.ar    1  UNL1        0.1193
     31 N          59.5722   89.0394    7.6893 N.ar    1  UNL1       -0.2223
     32 C          60.1928   88.9651    9.0529 C.ar    1  UNL1        0.1787
@<TRIPOS>BOND
     1     1     2    2
     2     2     3   am
     3     3    17    1
     4    17    27    1
     5    27    28    1
     6    28    29   ar
     7    29    30   ar
     8    30    31   ar
     9    31    32   ar
    10    17    18    1
    11    18    19    2
    12    18    20    1
    13    20    21   ar
    14    21    22   ar
    15    22    23   ar
    16    23    24   ar
    17    24    25    1
    18    24    26   ar
    19     2     5    1
    20     5     6   ar
    21     6     7   ar
    22     7     8   ar
    23     8    10    1
    24    10    11   ar
    25    11    12   ar
    26    12    13   ar
    27    13    14    1
    28    13    15   ar
    29    15    16   ar
    30     8     9   ar
    31    32    28   ar
    32    26    20   ar
    33     9     5   ar
    34    16    10   ar
    35     3     4    1
