@<TRIPOS>MOLECULE
*****
 33 35 0 0 0
SMALL
GASTEIGER

@<TRIPOS>ATOM
      1 C          62.1008   87.1580   11.1241 C.ar    1  UNL1        0.1508
      2 C          61.1713   87.4321    9.9792 C.ar    1  UNL1        0.0778
      3 CL         60.4462   86.2998    9.3141 Cl      1  UNL1       -0.0808
      4 C          60.9668   88.8385    9.4994 C.ar    1  UNL1        0.0142
      5 C          61.6918   89.9707   10.1644 C.ar    1  UNL1        0.0187
      6 C          62.6213   89.6966   11.3093 C.ar    1  UNL1        0.0870
      7 C          62.8258   88.2902   11.7892 C.ar    1  UNL1        0.1650
      8 O          63.7553   88.0161   12.9341 O.3     1  UNL1       -0.5032
      9 H          64.2082   88.7234   13.3496 H       1  UNL1        0.2923
     10 N          63.3463   90.8289   11.9745 N.am    1  UNL1       -0.2656
     11 C          64.1823   91.7678   11.1562 C.2     1  UNL1        0.3083
     12 O          64.2931   91.5745    9.6728 O.2     1  UNL1       -0.2521
     13 N          64.9073   92.9000   11.8212 N.am    1  UNL1       -0.2672
     14 H          63.2736   90.9557   12.9480 H       1  UNL1        0.1565
     15 H          64.8345   93.0269   12.7948 H       1  UNL1        0.1564
     16 C          65.7433   93.8390   11.0029 C.ar    1  UNL1        0.0644
     17 C          65.2790   95.2459   10.7681 C.ar    1  UNL1        0.0157
     18 C          66.1149   96.1848    9.9499 C.ar    1  UNL1        0.0036
     19 C          67.4151   95.7169    9.3664 C.ar    1  UNL1        0.0306
     20 C          67.8794   94.3100    9.6011 C.ar    1  UNL1        0.1518
     21 F          69.1796   93.8421    9.0176 F       1  UNL1       -0.2032
     22 C          67.0435   93.3710   10.4194 C.ar    1  UNL1        0.0985
     23 CL         67.5078   91.9642   10.6542 Cl      1  UNL1       -0.0786
     24 S          62.3053   85.7516   11.6039 S.O2    1  UNL1        0.0108
     25 O          62.9621   85.4026   10.3013 O.2     1  UNL1       -0.1686
     26 O          61.6485   86.1005   12.9066 O.2     1  UNL1       -0.1686
     27 C          63.1233   80.1260   13.5233 C.3     1  UNL1        0.0896
     28 N          62.9188   81.5324   13.0434 N.3     1  UNL1       -0.2714
     29 C          62.6263   82.6257   14.0279 C.3     1  UNL1        0.0739
     30 C          62.4218   84.0320   13.5480 C.3     1  UNL1        0.0413
     31 C          62.5098   84.3452   12.0838 C.3     1  UNL1        0.1367
     32 C          62.8023   83.2519   11.0993 C.3     1  UNL1        0.0413
     33 C          63.0068   81.8455   11.5792 C.3     1  UNL1        0.0739
@<TRIPOS>BOND
     1    27    28    1
     2    28    29    1
     3    29    30    1
     4    30    31    1
     5    31    24    1
     6    24    25    2
     7    24    26    2
     8    24     1    1
     9     1     2   ar
    10     2     3    1
    11     2     4   ar
    12     4     5   ar
    13     5     6   ar
    14     6    10    1
    15    10    11   am
    16    11    12    2
    17    11    13   am
    18    13    16    1
    19    16    17   ar
    20    17    18   ar
    21    18    19   ar
    22    19    20   ar
    23    20    21    1
    24    20    22   ar
    25    22    23    1
    26     6     7   ar
    27     7     8    1
    28    31    32    1
    29    32    33    1
    30    33    28    1
    31     7     1   ar
    32    22    16   ar
    33    10    14    1
    34    13    15    1
    35     8     9    1
@<TRIPOS>MOLECULE
*****
 33 35 0 0 0
SMALL
GASTEIGER

@<TRIPOS>ATOM
      1 C          65.0927   91.7158   12.7965 C.ar    1  UNL1        0.1508
      2 C          65.3846   91.7698   14.2668 C.ar    1  UNL1        0.0778
      3 CL         66.2656   92.8519   14.8173 Cl      1  UNL1       -0.0808
      4 C          64.7955   90.7417   15.1866 C.ar    1  UNL1        0.0142
      5 C          63.9145   89.6597   14.6362 C.ar    1  UNL1        0.0187
      6 C          63.6226   89.6057   13.1659 C.ar    1  UNL1        0.0870
      7 C          64.2117   90.6337   12.2460 C.ar    1  UNL1        0.1650
      8 O          63.9198   90.5797   10.7756 O.3     1  UNL1       -0.5032
      9 H          63.3695   89.9038   10.4318 H       1  UNL1        0.2923
     10 N          62.7416   88.5236   12.6153 N.am    1  UNL1       -0.2656
     11 C          63.1028   87.0830   12.8254 C.2     1  UNL1        0.3083
     12 O          64.3451   86.7244   13.5860 O.2     1  UNL1       -0.2521
     13 N          62.2219   86.0009   12.2749 N.am    1  UNL1       -0.2672
     14 H          61.9264   88.7590   12.1161 H       1  UNL1        0.1565
     15 H          61.4067   86.2363   11.7757 H       1  UNL1        0.1564
     16 C          62.5831   84.5603   12.4850 C.ar    1  UNL1        0.0644
     17 C          62.4383   83.9412   13.8435 C.ar    1  UNL1        0.0157
     18 C          62.7995   82.5006   14.0536 C.ar    1  UNL1        0.0036
     19 C          63.3055   81.6791   12.9052 C.ar    1  UNL1        0.0306
     20 C          63.4504   82.2982   11.5465 C.ar    1  UNL1        0.1518
     21 F          63.9564   81.4766   10.3981 F       1  UNL1       -0.2032
     22 C          63.0892   83.7388   11.3364 C.ar    1  UNL1        0.0985
     23 CL         63.2340   84.3579    9.9779 Cl      1  UNL1       -0.0786
     24 S          65.6818   92.7438   11.8766 S.O2    1  UNL1        0.0108
     25 O          64.3028   93.1564   11.4546 O.2     1  UNL1       -0.1686
     26 O          67.0608   92.3313   12.2987 O.2     1  UNL1       -0.1686
     27 C          68.0381   96.8560    8.1973 C.3     1  UNL1        0.0896
     28 N          67.4490   95.8280    9.1171 N.3     1  UNL1       -0.2714
     29 C          66.6413   96.2594   10.3051 C.3     1  UNL1        0.0739
     30 C          66.0522   95.2314   11.2250 C.3     1  UNL1        0.0413
     31 C          66.2708   93.7719   10.9568 C.3     1  UNL1        0.1367
     32 C          67.0785   93.3404    9.7688 C.3     1  UNL1        0.0413
     33 C          67.6676   94.3684    8.8490 C.3     1  UNL1        0.0739
@<TRIPOS>BOND
     1    27    28    1
     2    28    29    1
     3    29    30    1
     4    30    31    1
     5    31    24    1
     6    24    25    2
     7    24    26    2
     8    24     1    1
     9     1     2   ar
    10     2     3    1
    11     2     4   ar
    12     4     5   ar
    13     5     6   ar
    14     6    10    1
    15    10    11   am
    16    11    12    2
    17    11    13   am
    18    13    16    1
    19    16    17   ar
    20    17    18   ar
    21    18    19   ar
    22    19    20   ar
    23    20    21    1
    24    20    22   ar
    25    22    23    1
    26     6     7   ar
    27     7     8    1
    28    31    32    1
    29    32    33    1
    30    33    28    1
    31     7     1   ar
    32    22    16   ar
    33    10    14    1
    34    13    15    1
    35     8     9    1
@<TRIPOS>MOLECULE
*****
 33 35 0 0 0
SMALL
GASTEIGER

@<TRIPOS>ATOM
      1 C          63.8581   88.8138   15.2989 C.ar    1  UNL1        0.1508
      2 C          63.1054   89.1808   16.5434 C.ar    1  UNL1        0.0778
      3 CL         62.7439   90.6127   16.8064 Cl      1  UNL1       -0.0808
      4 C          62.7142   88.1161   17.5248 C.ar    1  UNL1        0.0142
      5 C          63.0757   86.6843   17.2619 C.ar    1  UNL1        0.0187
      6 C          63.8284   86.3172   16.0174 C.ar    1  UNL1        0.0870
      7 C          64.2196   87.3819   15.0360 C.ar    1  UNL1        0.1650
      8 O          64.9723   87.0148   13.7915 O.3     1  UNL1       -0.5032
      9 H          65.1981   86.1204   13.6272 H       1  UNL1        0.2923
     10 N          64.1899   84.8853   15.7544 N.am    1  UNL1       -0.2656
     11 C          63.8767   84.2647   14.4252 C.2     1  UNL1        0.3083
     12 O          63.2020   85.0760   13.3590 O.2     1  UNL1       -0.2521
     13 N          64.2382   82.8329   14.1621 N.am    1  UNL1       -0.2672
     14 H          64.6327   84.3529   16.4542 H       1  UNL1        0.1565
     15 H          64.6810   82.3005   14.8619 H       1  UNL1        0.1564
     16 C          63.9250   82.2123   12.8329 C.ar    1  UNL1        0.0644
     17 C          64.2929   82.9267   11.5664 C.ar    1  UNL1        0.0157
     18 C          63.9797   82.3061   10.2372 C.ar    1  UNL1        0.0036
     19 C          63.2986   80.9712   10.1745 C.ar    1  UNL1        0.0306
     20 C          62.9306   80.2568   11.4412 C.ar    1  UNL1        0.1518
     21 F          62.2494   78.9218   11.3786 F       1  UNL1       -0.2032
     22 C          63.2438   80.8773   12.7704 C.ar    1  UNL1        0.0985
     23 CL         62.8758   80.1630   14.0370 Cl      1  UNL1       -0.0786
     24 S          64.2493   89.8785   14.3174 S.O2    1  UNL1        0.0108
     25 O          62.8981   89.7812   13.6733 O.2     1  UNL1       -0.1686
     26 O          65.6005   89.9758   14.9616 O.2     1  UNL1       -0.1686
     27 C          65.8141   94.1375   10.3915 C.3     1  UNL1        0.0896
     28 N          65.4229   93.0727   11.3730 N.3     1  UNL1       -0.2714
     29 C          64.3543   92.0817   11.0182 C.3     1  UNL1        0.0739
     30 C          63.9631   91.0170   11.9997 C.3     1  UNL1        0.0413
     31 C          64.6405   90.9432   13.3360 C.3     1  UNL1        0.1367
     32 C          65.7091   91.9342   13.6908 C.3     1  UNL1        0.0413
     33 C          66.1003   92.9990   12.7093 C.3     1  UNL1        0.0739
@<TRIPOS>BOND
     1    27    28    1
     2    28    29    1
     3    29    30    1
     4    30    31    1
     5    31    24    1
     6    24    25    2
     7    24    26    2
     8    24     1    1
     9     1     2   ar
    10     2     3    1
    11     2     4   ar
    12     4     5   ar
    13     5     6   ar
    14     6    10    1
    15    10    11   am
    16    11    12    2
    17    11    13   am
    18    13    16    1
    19    16    17   ar
    20    17    18   ar
    21    18    19   ar
    22    19    20   ar
    23    20    21    1
    24    20    22   ar
    25    22    23    1
    26     6     7   ar
    27     7     8    1
    28    31    32    1
    29    32    33    1
    30    33    28    1
    31     7     1   ar
    32    22    16   ar
    33    10    14    1
    34    13    15    1
    35     8     9    1
@<TRIPOS>MOLECULE
*****
 33 35 0 0 0
SMALL
GASTEIGER

@<TRIPOS>ATOM
      1 C          65.0097   91.6559   12.7291 C.ar    1  UNL1        0.1508
      2 C          65.2999   91.6927   14.2003 C.ar    1  UNL1        0.0778
      3 CL         66.1786   92.7696   14.7646 Cl      1  UNL1       -0.0808
      4 C          64.7115   90.6528   15.1071 C.ar    1  UNL1        0.0142
      5 C          63.8328   89.5761   14.5428 C.ar    1  UNL1        0.0187
      6 C          63.5426   89.5392   13.0716 C.ar    1  UNL1        0.0870
      7 C          64.1310   90.5791   12.1648 C.ar    1  UNL1        0.1650
      8 O          63.8407   90.5422   10.6935 O.3     1  UNL1       -0.5032
      9 H          63.2919   89.8696   10.3410 H       1  UNL1        0.2923
     10 N          62.6639   88.4624   12.5072 N.am    1  UNL1       -0.2656
     11 C          63.0786   87.0247   12.6114 C.2     1  UNL1        0.3083
     12 O          64.3720   86.6637   13.2799 O.2     1  UNL1       -0.2521
     13 N          62.2000   85.9479   12.0470 N.am    1  UNL1       -0.2672
     14 H          61.8150   88.6993   12.0685 H       1  UNL1        0.1565
     15 H          61.3511   86.1848   11.6083 H       1  UNL1        0.1564
     16 C          62.6147   84.5101   12.1512 C.ar    1  UNL1        0.0644
     17 C          63.1913   83.8075   10.9579 C.ar    1  UNL1        0.0157
     18 C          63.6060   82.3698   11.0620 C.ar    1  UNL1        0.0036
     19 C          63.4442   81.6346   12.3594 C.ar    1  UNL1        0.0306
     20 C          62.8676   82.3372   13.5528 C.ar    1  UNL1        0.1518
     21 F          62.7057   81.6020   14.8501 F       1  UNL1       -0.2032
     22 C          62.4528   83.7749   13.4486 C.ar    1  UNL1        0.0985
     23 CL         61.8762   84.4775   14.6419 Cl      1  UNL1       -0.0786
     24 S          65.5981   92.6958   11.8222 S.O2    1  UNL1        0.0108
     25 O          64.2187   93.1175   11.4108 O.2     1  UNL1       -0.1686
     26 O          66.9775   92.2741   12.2337 O.2     1  UNL1       -0.1686
     27 C          67.9518   96.8554    8.1949 C.3     1  UNL1        0.0896
     28 N          67.3634   95.8155    9.1017 N.3     1  UNL1       -0.2714
     29 C          66.4591   96.2257   10.2259 C.3     1  UNL1        0.0739
     30 C          65.8707   95.1858   11.1328 C.3     1  UNL1        0.0413
     31 C          66.1865   93.7357   10.9154 C.3     1  UNL1        0.1367
     32 C          67.0908   93.3254    9.7912 C.3     1  UNL1        0.0413
     33 C          67.6792   94.3653    8.8843 C.3     1  UNL1        0.0739
@<TRIPOS>BOND
     1    27    28    1
     2    28    29    1
     3    29    30    1
     4    30    31    1
     5    31    24    1
     6    24    25    2
     7    24    26    2
     8    24     1    1
     9     1     2   ar
    10     2     3    1
    11     2     4   ar
    12     4     5   ar
    13     5     6   ar
    14     6    10    1
    15    10    11   am
    16    11    12    2
    17    11    13   am
    18    13    16    1
    19    16    17   ar
    20    17    18   ar
    21    18    19   ar
    22    19    20   ar
    23    20    21    1
    24    20    22   ar
    25    22    23    1
    26     6     7   ar
    27     7     8    1
    28    31    32    1
    29    32    33    1
    30    33    28    1
    31     7     1   ar
    32    22    16   ar
    33    10    14    1
    34    13    15    1
    35     8     9    1
@<TRIPOS>MOLECULE
*****
 33 35 0 0 0
SMALL
GASTEIGER

@<TRIPOS>ATOM
      1 C          65.6046   92.1969   12.7671 C.ar    1  UNL1        0.1508
      2 C          66.3779   92.0261   14.0410 C.ar    1  UNL1        0.0778
      3 CL         67.6543   92.7855   14.2511 Cl      1  UNL1       -0.0808
      4 C          65.8748   91.0959   15.1047 C.ar    1  UNL1        0.0142
      5 C          64.5985   90.3364   14.8946 C.ar    1  UNL1        0.0187
      6 C          63.8252   90.5072   13.6208 C.ar    1  UNL1        0.0870
      7 C          64.3283   91.4374   12.5570 C.ar    1  UNL1        0.1650
      8 O          63.5549   91.6082   11.2830 O.3     1  UNL1       -0.5032
      9 H          62.7576   91.1338   11.1518 H       1  UNL1        0.2923
     10 N          62.5488   89.7477   13.4106 N.am    1  UNL1       -0.2656
     11 C          62.2397   89.1578   12.0666 C.2     1  UNL1        0.3083
     12 O          63.2071   89.3273   10.9327 O.2     1  UNL1       -0.2521
     13 N          60.9634   88.3984   11.8564 N.am    1  UNL1       -0.2672
     14 H          61.9140   89.6365   14.1548 H       1  UNL1        0.1565
     15 H          60.3286   88.2871   12.6006 H       1  UNL1        0.1564
     16 C          60.6543   87.8084   10.5123 C.ar    1  UNL1        0.0644
     17 C          60.8540   86.3412   10.2734 C.ar    1  UNL1        0.0157
     18 C          60.5450   85.7512    8.9294 C.ar    1  UNL1        0.0036
     19 C          60.0362   86.6286    7.8242 C.ar    1  UNL1        0.0306
     20 C          59.8365   88.0960    8.0631 C.ar    1  UNL1        0.1518
     21 F          59.3277   88.9733    6.9580 F       1  UNL1       -0.2032
     22 C          60.1455   88.6859    9.4072 C.ar    1  UNL1        0.0985
     23 CL         59.9458   90.1532    9.6461 Cl      1  UNL1       -0.0786
     24 S          66.1076   93.1271   11.7033 S.O2    1  UNL1        0.0108
     25 O          65.0712   94.1375   12.0967 O.2     1  UNL1       -0.1686
     26 O          67.1441   92.1167   11.3098 O.2     1  UNL1       -0.1686
     27 C          68.1198   96.8480    7.4482 C.3     1  UNL1        0.0896
     28 N          67.6168   95.9178    8.5119 N.3     1  UNL1       -0.2714
     29 C          67.6898   94.4337    8.3063 C.3     1  UNL1        0.0739
     30 C          67.1868   93.5035    9.3701 C.3     1  UNL1        0.0413
     31 C          66.6107   94.0573   10.6395 C.3     1  UNL1        0.1367
     32 C          66.5377   95.5413   10.8451 C.3     1  UNL1        0.0413
     33 C          67.0407   96.4715    9.7813 C.3     1  UNL1        0.0739
@<TRIPOS>BOND
     1    27    28    1
     2    28    29    1
     3    29    30    1
     4    30    31    1
     5    31    24    1
     6    24    25    2
     7    24    26    2
     8    24     1    1
     9     1     2   ar
    10     2     3    1
    11     2     4   ar
    12     4     5   ar
    13     5     6   ar
    14     6    10    1
    15    10    11   am
    16    11    12    2
    17    11    13   am
    18    13    16    1
    19    16    17   ar
    20    17    18   ar
    21    18    19   ar
    22    19    20   ar
    23    20    21    1
    24    20    22   ar
    25    22    23    1
    26     6     7   ar
    27     7     8    1
    28    31    32    1
    29    32    33    1
    30    33    28    1
    31     7     1   ar
    32    22    16   ar
    33    10    14    1
    34    13    15    1
    35     8     9    1
@<TRIPOS>MOLECULE
*****
 33 35 0 0 0
SMALL
GASTEIGER

@<TRIPOS>ATOM
      1 C          64.1502   89.8055   14.7459 C.ar    1  UNL1        0.1508
      2 C          63.5585   90.0300   16.1059 C.ar    1  UNL1        0.0778
      3 CL         62.6528   88.9978   16.7095 Cl      1  UNL1       -0.0808
      4 C          63.8725   91.2868   16.8622 C.ar    1  UNL1        0.0142
      5 C          64.7781   92.3189   16.2587 C.ar    1  UNL1        0.0187
      6 C          65.3698   92.0944   14.8987 C.ar    1  UNL1        0.0870
      7 C          65.0559   90.8377   14.1424 C.ar    1  UNL1        0.1650
      8 O          65.6476   90.6132   12.7824 O.3     1  UNL1       -0.5032
      9 H          66.2134   91.2580   12.4054 H       1  UNL1        0.2923
     10 N          66.2755   93.1266   14.2951 N.am    1  UNL1       -0.2656
     11 C          66.0165   93.6319   12.9067 C.2     1  UNL1        0.3083
     12 O          64.8518   93.1049   12.1220 O.2     1  UNL1       -0.2521
     13 N          66.9221   94.6640   12.3031 N.am    1  UNL1       -0.2672
     14 H          67.0400   93.4725   14.8102 H       1  UNL1        0.1565
     15 H          67.6866   95.0099   12.8181 H       1  UNL1        0.1564
     16 C          66.6631   95.1693   10.9147 C.ar    1  UNL1        0.0644
     17 C          65.7629   96.3501   10.7021 C.ar    1  UNL1        0.0157
     18 C          65.5039   96.8553    9.3137 C.ar    1  UNL1        0.0036
     19 C          66.1451   96.1798    8.1379 C.ar    1  UNL1        0.0306
     20 C          67.0454   94.9989    8.3505 C.ar    1  UNL1        0.1518
     21 F          67.6866   94.3234    7.1747 F       1  UNL1       -0.2032
     22 C          67.3044   94.4937    9.7389 C.ar    1  UNL1        0.0985
     23 CL         68.2046   93.3129    9.9515 Cl      1  UNL1       -0.0786
     24 S          63.8362   88.5488   13.9896 S.O2    1  UNL1        0.0108
     25 O          64.7576   87.7780   14.8879 O.2     1  UNL1       -0.1686
     26 O          62.9149   89.3196   13.0913 O.2     1  UNL1       -0.1686
     27 C          62.5804   83.5219   10.9641 C.3     1  UNL1        0.0896
     28 N          62.8943   84.7786   11.7205 N.3     1  UNL1       -0.2714
     29 C          62.4707   86.1092   11.1729 C.3     1  UNL1        0.0739
     30 C          62.7846   87.3660   11.9292 C.3     1  UNL1        0.0413
     31 C          63.5223   87.2921   13.2332 C.3     1  UNL1        0.1367
     32 C          63.9459   85.9615   13.7808 C.3     1  UNL1        0.0413
     33 C          63.6320   84.7047   13.0245 C.3     1  UNL1        0.0739
@<TRIPOS>BOND
     1    27    28    1
     2    28    29    1
     3    29    30    1
     4    30    31    1
     5    31    24    1
     6    24    25    2
     7    24    26    2
     8    24     1    1
     9     1     2   ar
    10     2     3    1
    11     2     4   ar
    12     4     5   ar
    13     5     6   ar
    14     6    10    1
    15    10    11   am
    16    11    12    2
    17    11    13   am
    18    13    16    1
    19    16    17   ar
    20    17    18   ar
    21    18    19   ar
    22    19    20   ar
    23    20    21    1
    24    20    22   ar
    25    22    23    1
    26     6     7   ar
    27     7     8    1
    28    31    32    1
    29    32    33    1
    30    33    28    1
    31     7     1   ar
    32    22    16   ar
    33    10    14    1
    34    13    15    1
    35     8     9    1
@<TRIPOS>MOLECULE
*****
 33 35 0 0 0
SMALL
GASTEIGER

@<TRIPOS>ATOM
      1 C          63.5308   84.4451   13.8506 C.ar    1  UNL1        0.1508
      2 C          63.8819   84.4379   15.3089 C.ar    1  UNL1        0.0778
      3 CL         64.0446   83.1353   16.0348 Cl      1  UNL1       -0.0808
      4 C          64.0704   85.7333   16.0413 C.ar    1  UNL1        0.0142
      5 C          63.9078   87.0358   15.3155 C.ar    1  UNL1        0.0187
      6 C          63.5567   87.0430   13.8572 C.ar    1  UNL1        0.0870
      7 C          63.3681   85.7477   13.1248 C.ar    1  UNL1        0.1650
      8 O          63.0170   85.7549   11.6664 O.3     1  UNL1       -0.5032
      9 H          62.9154   86.5686   11.2130 H       1  UNL1        0.2923
     10 N          63.3940   88.3456   13.1314 N.am    1  UNL1       -0.2656
     11 C          64.2824   89.5069   13.4664 C.2     1  UNL1        0.3083
     12 O          65.3333   89.3656   14.5274 O.2     1  UNL1       -0.2521
     13 N          64.1198   90.8095   12.7406 N.am    1  UNL1       -0.2672
     14 H          62.7042   88.4383   12.4350 H       1  UNL1        0.1565
     15 H          63.4300   90.9022   12.0443 H       1  UNL1        0.1564
     16 C          65.0081   91.9708   13.0756 C.ar    1  UNL1        0.0644
     17 C          65.4615   92.1848   14.4893 C.ar    1  UNL1        0.0157
     18 C          66.3499   93.3461   14.8244 C.ar    1  UNL1        0.0036
     19 C          66.7848   94.2933   13.7458 C.ar    1  UNL1        0.0306
     20 C          66.3314   94.0793   12.3320 C.ar    1  UNL1        0.1518
     21 F          66.7663   95.0266   11.2534 F       1  UNL1       -0.2032
     22 C          65.4430   92.9180   11.9969 C.ar    1  UNL1        0.0985
     23 CL         64.9896   92.7040   10.5832 Cl      1  UNL1       -0.0786
     24 S          63.3423   83.1497   13.1181 S.O2    1  UNL1        0.0108
     25 O          62.0290   82.9473   13.8142 O.2     1  UNL1       -0.1686
     26 O          64.6555   83.3522   12.4221 O.2     1  UNL1       -0.1686
     27 C          62.5882   77.9683   10.1883 C.3     1  UNL1        0.0896
     28 N          62.7767   79.2636   10.9208 N.3     1  UNL1       -0.2714
     29 C          62.5483   79.3279   12.4018 C.3     1  UNL1        0.0739
     30 C          62.7368   80.6233   13.1343 C.3     1  UNL1        0.0413
     31 C          63.1537   81.8544   12.3857 C.3     1  UNL1        0.1367
     32 C          63.3822   81.7901   10.9046 C.3     1  UNL1        0.0413
     33 C          63.1937   80.4948   10.1721 C.3     1  UNL1        0.0739
@<TRIPOS>BOND
     1    27    28    1
     2    28    29    1
     3    29    30    1
     4    30    31    1
     5    31    24    1
     6    24    25    2
     7    24    26    2
     8    24     1    1
     9     1     2   ar
    10     2     3    1
    11     2     4   ar
    12     4     5   ar
    13     5     6   ar
    14     6    10    1
    15    10    11   am
    16    11    12    2
    17    11    13   am
    18    13    16    1
    19    16    17   ar
    20    17    18   ar
    21    18    19   ar
    22    19    20   ar
    23    20    21    1
    24    20    22   ar
    25    22    23    1
    26     6     7   ar
    27     7     8    1
    28    31    32    1
    29    32    33    1
    30    33    28    1
    31     7     1   ar
    32    22    16   ar
    33    10    14    1
    34    13    15    1
    35     8     9    1
@<TRIPOS>MOLECULE
*****
 33 35 0 0 0
SMALL
GASTEIGER

@<TRIPOS>ATOM
      1 C          61.7773   87.1408   10.7813 C.ar    1  UNL1        0.1508
      2 C          60.9843   87.2955    9.5176 C.ar    1  UNL1        0.0778
      3 CL         60.5215   86.0807    8.7691 Cl      1  UNL1       -0.0808
      4 C          60.6540   88.6650    9.0022 C.ar    1  UNL1        0.0142
      5 C          61.1168   89.8797    9.7507 C.ar    1  UNL1        0.0187
      6 C          61.9098   89.7250   11.0144 C.ar    1  UNL1        0.0870
      7 C          62.2401   88.3556   11.5298 C.ar    1  UNL1        0.1650
      8 O          63.0332   88.2009   12.7936 O.3     1  UNL1       -0.5032
      9 H          63.3222   88.9597   13.2611 H       1  UNL1        0.2923
     10 N          62.3726   90.9398   11.7629 N.am    1  UNL1       -0.2656
     11 C          63.7682   90.9972   12.3099 C.2     1  UNL1        0.3083
     12 O          64.7009   89.8398   12.1083 O.2     1  UNL1       -0.2521
     13 N          64.2310   92.2119   13.0583 N.am    1  UNL1       -0.2672
     14 H          61.7604   91.6994   11.8952 H       1  UNL1        0.1565
     15 H          63.6188   92.9715   13.1906 H       1  UNL1        0.1564
     16 C          65.6266   92.2693   13.6053 C.ar    1  UNL1        0.0644
     17 C          66.7922   92.4149   12.6726 C.ar    1  UNL1        0.0157
     18 C          68.1878   92.4723   13.2195 C.ar    1  UNL1        0.0036
     19 C          68.4177   92.3842   14.6991 C.ar    1  UNL1        0.0306
     20 C          67.2520   92.2386   15.6319 C.ar    1  UNL1        0.1518
     21 F          67.4819   92.1505   17.1115 F       1  UNL1       -0.2032
     22 C          65.8564   92.1812   15.0850 C.ar    1  UNL1        0.0985
     23 CL         64.6907   92.0356   16.0177 Cl      1  UNL1       -0.0786
     24 S          62.1076   85.7714   11.2966 S.O2    1  UNL1        0.0108
     25 O          61.3048   86.0434   12.5342 O.2     1  UNL1       -0.1686
     26 O          62.9104   85.4993   10.0591 O.2     1  UNL1       -0.1686
     27 C          63.4287   80.2936   13.3579 C.3     1  UNL1        0.0896
     28 N          63.0984   81.6631   12.8426 N.3     1  UNL1       -0.2714
     29 C          62.6754   82.7412   13.7958 C.3     1  UNL1        0.0739
     30 C          62.3452   84.1107   13.2804 C.3     1  UNL1        0.0413
     31 C          62.4379   84.4019   11.8120 C.3     1  UNL1        0.1367
     32 C          62.8608   83.3238   10.8588 C.3     1  UNL1        0.0413
     33 C          63.1911   81.9543   11.3741 C.3     1  UNL1        0.0739
@<TRIPOS>BOND
     1    27    28    1
     2    28    29    1
     3    29    30    1
     4    30    31    1
     5    31    24    1
     6    24    25    2
     7    24    26    2
     8    24     1    1
     9     1     2   ar
    10     2     3    1
    11     2     4   ar
    12     4     5   ar
    13     5     6   ar
    14     6    10    1
    15    10    11   am
    16    11    12    2
    17    11    13   am
    18    13    16    1
    19    16    17   ar
    20    17    18   ar
    21    18    19   ar
    22    19    20   ar
    23    20    21    1
    24    20    22   ar
    25    22    23    1
    26     6     7   ar
    27     7     8    1
    28    31    32    1
    29    32    33    1
    30    33    28    1
    31     7     1   ar
    32    22    16   ar
    33    10    14    1
    34    13    15    1
    35     8     9    1
@<TRIPOS>MOLECULE
*****
 33 35 0 0 0
SMALL
GASTEIGER

@<TRIPOS>ATOM
      1 C          63.4187   87.9224   15.1869 C.ar    1  UNL1        0.1508
      2 C          63.3909   88.4347   16.5964 C.ar    1  UNL1        0.0778
      3 CL         63.3756   87.4698   17.7449 Cl      1  UNL1       -0.0808
      4 C          63.3784   89.9117   16.8575 C.ar    1  UNL1        0.0142
      5 C          63.3937   90.8765   15.7092 C.ar    1  UNL1        0.0187
      6 C          63.4215   90.3643   14.2996 C.ar    1  UNL1        0.0870
      7 C          63.4340   88.8873   14.0385 C.ar    1  UNL1        0.1650
      8 O          63.4618   88.3751   12.6289 O.3     1  UNL1       -0.5032
      9 H          63.4714   88.9778   11.9115 H       1  UNL1        0.2923
     10 N          63.4368   91.3291   13.1512 N.am    1  UNL1       -0.2656
     11 C          64.7359   91.6962   12.4973 C.2     1  UNL1        0.3083
     12 O          66.0198   91.0985   12.9919 O.2     1  UNL1       -0.2521
     13 N          64.7513   92.6610   11.3489 N.am    1  UNL1       -0.2672
     14 H          62.5942   91.7214   12.8265 H       1  UNL1        0.1565
     15 H          63.9087   93.0533   11.0243 H       1  UNL1        0.1564
     16 C          66.0504   93.0281   10.6950 C.ar    1  UNL1        0.0644
     17 C          67.0994   91.9798   10.4702 C.ar    1  UNL1        0.0157
     18 C          68.3986   92.3469    9.8164 C.ar    1  UNL1        0.0036
     19 C          68.6487   93.7623    9.3873 C.ar    1  UNL1        0.0306
     20 C          67.5996   94.8107    9.6121 C.ar    1  UNL1        0.1518
     21 F          67.8497   96.2260    9.1831 F       1  UNL1       -0.2032
     22 C          66.3005   94.4436   10.2660 C.ar    1  UNL1        0.0985
     23 CL         65.2514   95.4919   10.4908 Cl      1  UNL1       -0.0786
     24 S          63.4312   86.4454   14.9258 S.O2    1  UNL1        0.0108
     25 O          64.7335   86.5857   14.1947 O.2     1  UNL1       -0.1686
     26 O          62.1289   86.3051   15.6568 O.2     1  UNL1       -0.1686
     27 C          63.4813   80.5372   13.8812 C.3     1  UNL1        0.0896
     28 N          63.4687   82.0143   14.1423 N.3     1  UNL1       -0.2714
     29 C          62.3644   82.6230   14.9546 C.3     1  UNL1        0.0739
     30 C          62.3518   84.1000   15.2157 C.3     1  UNL1        0.0413
     31 C          63.4437   84.9684   14.6646 C.3     1  UNL1        0.1367
     32 C          64.5481   84.3597   13.8524 C.3     1  UNL1        0.0413
     33 C          64.5606   82.8826   13.5913 C.3     1  UNL1        0.0739
@<TRIPOS>BOND
     1    27    28    1
     2    28    29    1
     3    29    30    1
     4    30    31    1
     5    31    24    1
     6    24    25    2
     7    24    26    2
     8    24     1    1
     9     1     2   ar
    10     2     3    1
    11     2     4   ar
    12     4     5   ar
    13     5     6   ar
    14     6    10    1
    15    10    11   am
    16    11    12    2
    17    11    13   am
    18    13    16    1
    19    16    17   ar
    20    17    18   ar
    21    18    19   ar
    22    19    20   ar
    23    20    21    1
    24    20    22   ar
    25    22    23    1
    26     6     7   ar
    27     7     8    1
    28    31    32    1
    29    32    33    1
    30    33    28    1
    31     7     1   ar
    32    22    16   ar
    33    10    14    1
    34    13    15    1
    35     8     9    1
