@<TRIPOS>MOLECULE
*****
 32 34 0 0 0
SMALL
GASTEIGER

@<TRIPOS>ATOM
      1 C          64.0657   87.3219   15.3443 C.ar    1  UNL1        0.1378
      2 C          64.3179   88.3904   14.3222 C.ar    1  UNL1        0.0475
      3 C          63.8426   89.7915   14.5689 C.ar    1  UNL1        0.1378
      4 N          63.1149   90.1242   15.8376 N.ar    1  UNL1       -0.2193
      5 C          62.8626   89.0557   16.8598 C.ar    1  UNL1        0.1991
      6 N          63.3380   87.6546   16.6131 N.ar    1  UNL1       -0.2193
      7 N          63.6197   84.7624   15.3412 N.am    1  UNL1       -0.2957
      8 C          64.5410   85.9208   15.0976 C.2     1  UNL1        0.2639
      9 O          65.9378   85.6780   14.6073 O.2     1  UNL1       -0.2685
     10 H          62.7030   84.9217   15.6629 H       1  UNL1        0.1501
     11 C          64.0951   83.3613   15.0945 C.3     1  UNL1        0.1166
     12 C          64.1811   83.3178    9.8992 C.3     1  UNL1        0.0334
     13 C          63.8230   82.6584   11.1981 C.ar    1  UNL1        0.0053
     14 C          64.1381   83.3395   12.4968 C.ar    1  UNL1       -0.0047
     15 C          63.7800   82.6801   13.7957 C.ar    1  UNL1       -0.0027
     16 C          63.1069   81.3397   13.7958 C.ar    1  UNL1       -0.0003
     17 C          62.7918   80.6586   12.4970 C.ar    1  UNL1        0.0290
     18 C          63.1499   81.3180   11.1982 C.ar    1  UNL1        0.1361
     19 F          62.8348   80.6368    9.8994 F       1  UNL1       -0.2045
     20 C          64.0949   90.8600   13.5467 C.2     1  UNL1        0.2639
     21 O          63.2880   90.8943   12.2827 O.2     1  UNL1       -0.2685
     22 N          65.1541   91.8941   13.7885 N.am    1  UNL1       -0.2957
     23 H          65.6838   91.8716   14.6181 H       1  UNL1        0.1501
     24 C          65.4064   92.9625   12.7664 C.3     1  UNL1        0.1166
     25 C          66.4821   92.7772   11.7375 C.ar    1  UNL1       -0.0027
     26 C          67.5344   91.7263   11.9335 C.ar    1  UNL1       -0.0003
     27 C          68.6100   91.5409   10.9047 C.ar    1  UNL1        0.0290
     28 C          68.6335   92.4064    9.6798 C.ar    1  UNL1        0.1361
     29 F          69.7092   92.2211    8.6509 F       1  UNL1       -0.2045
     30 C          67.5813   93.4573    9.4837 C.ar    1  UNL1        0.0053
     31 C          67.6047   94.3228    8.2589 C.3     1  UNL1        0.0334
     32 C          66.5055   93.6427   10.5126 C.ar    1  UNL1       -0.0047
@<TRIPOS>BOND
     1    12    13    1
     2    13    14   ar
     3    14    15   ar
     4    15    11    1
     5    11     7    1
     6     7     8   am
     7     8     9    2
     8     8     1    1
     9     1     2   ar
    10     2     3   ar
    11     3    20    1
    12    20    21    2
    13    20    22   am
    14    22    24    1
    15    24    25    1
    16    25    26   ar
    17    26    27   ar
    18    27    28   ar
    19    28    29    1
    20    28    30   ar
    21    30    31    1
    22    30    32   ar
    23     3     4   ar
    24     4     5   ar
    25     5     6   ar
    26    15    16   ar
    27    16    17   ar
    28    17    18   ar
    29    18    19    1
    30    18    13   ar
    31     6     1   ar
    32    32    25   ar
    33     7    10    1
    34    22    23    1
@<TRIPOS>MOLECULE
*****
 32 34 0 0 0
SMALL
GASTEIGER

@<TRIPOS>ATOM
      1 C          63.9795   89.9117   14.6818 C.ar    1  UNL1        0.1378
      2 C          64.4606   88.5135   14.4296 C.ar    1  UNL1        0.0475
      3 C          64.1030   87.4137   15.3849 C.ar    1  UNL1        0.1378
      4 N          63.2645   87.7120   16.5922 N.ar    1  UNL1       -0.2193
      5 C          62.7834   89.1103   16.8444 C.ar    1  UNL1        0.1991
      6 N          63.1409   90.2101   15.8892 N.ar    1  UNL1       -0.2193
      7 N          65.3644   92.0346   14.1112 N.am    1  UNL1       -0.2957
      8 C          64.3371   91.0116   13.7265 C.2     1  UNL1        0.2639
      9 O          63.6672   91.0884   12.3865 O.2     1  UNL1       -0.2685
     10 H          65.8040   91.9842   14.9907 H       1  UNL1        0.1501
     11 C          65.7219   93.1345   13.1560 C.3     1  UNL1        0.1166
     12 C          67.4237   94.2568    8.3764 C.3     1  UNL1        0.0334
     13 C          67.5004   93.4213    9.6198 C.ar    1  UNL1        0.0053
     14 C          66.5729   93.6956   10.7662 C.ar    1  UNL1       -0.0047
     15 C          66.6496   92.8601   12.0096 C.ar    1  UNL1       -0.0027
     16 C          67.6539   91.7502   12.1065 C.ar    1  UNL1       -0.0003
     17 C          68.5815   91.4759   10.9601 C.ar    1  UNL1        0.0290
     18 C          68.5048   92.3114    9.7168 C.ar    1  UNL1        0.1361
     19 F          69.4324   92.0371    8.5703 F       1  UNL1       -0.2045
     20 C          64.5841   86.0154   15.1327 C.2     1  UNL1        0.2639
     21 O          65.9981   85.7767   14.6926 O.2     1  UNL1       -0.2685
     22 N          63.6513   84.8560   15.3207 N.am    1  UNL1       -0.2957
     23 H          62.7233   85.0126   15.6096 H       1  UNL1        0.1501
     24 C          64.1324   83.4578   15.0685 C.3     1  UNL1        0.1166
     25 C          63.8130   82.7774   13.7704 C.ar    1  UNL1       -0.0027
     26 C          63.1539   81.4299   13.7722 C.ar    1  UNL1       -0.0003
     27 C          62.8345   80.7495   12.4742 C.ar    1  UNL1        0.0290
     28 C          63.1741   81.4165   11.1742 C.ar    1  UNL1        0.1361
     29 F          62.8547   80.7360    9.8762 F       1  UNL1       -0.2045
     30 C          63.8332   82.7639   11.1724 C.ar    1  UNL1        0.0053
     31 C          64.1728   83.4310    9.8725 C.3     1  UNL1        0.0334
     32 C          64.1526   83.4444   12.4705 C.ar    1  UNL1       -0.0047
@<TRIPOS>BOND
     1    12    13    1
     2    13    14   ar
     3    14    15   ar
     4    15    11    1
     5    11     7    1
     6     7     8   am
     7     8     9    2
     8     8     1    1
     9     1     2   ar
    10     2     3   ar
    11     3    20    1
    12    20    21    2
    13    20    22   am
    14    22    24    1
    15    24    25    1
    16    25    26   ar
    17    26    27   ar
    18    27    28   ar
    19    28    29    1
    20    28    30   ar
    21    30    31    1
    22    30    32   ar
    23     3     4   ar
    24     4     5   ar
    25     5     6   ar
    26    15    16   ar
    27    16    17   ar
    28    17    18   ar
    29    18    19    1
    30    18    13   ar
    31     6     1   ar
    32    32    25   ar
    33     7    10    1
    34    22    23    1
@<TRIPOS>MOLECULE
*****
 32 34 0 0 0
SMALL
GASTEIGER

@<TRIPOS>ATOM
      1 C          64.0215   88.1614   15.0324 C.ar    1  UNL1        0.1378
      2 C          64.7269   89.3864   14.5308 C.ar    1  UNL1        0.0475
      3 C          64.5149   90.7058   15.2122 C.ar    1  UNL1        0.1378
      4 N          63.5975   90.8002   16.3951 N.ar    1  UNL1       -0.2193
      5 C          62.8920   89.5751   16.8967 C.ar    1  UNL1        0.1991
      6 N          63.1039   88.2557   16.2154 N.ar    1  UNL1       -0.2193
      7 N          65.2017   85.8495   14.9230 N.am    1  UNL1       -0.2957
      8 C          64.2334   86.8420   14.3510 C.2     1  UNL1        0.2639
      9 O          63.4770   86.5151   13.0975 O.2     1  UNL1       -0.2685
     10 H          65.6982   86.0640   15.7457 H       1  UNL1        0.1501
     11 C          65.4137   84.5301   14.2417 C.3     1  UNL1        0.1166
     12 C          62.9347   80.9242   11.4395 C.3     1  UNL1        0.0334
     13 C          63.0251   81.7783   12.6692 C.ar    1  UNL1        0.0053
     14 C          64.1742   82.7271   12.8406 C.ar    1  UNL1       -0.0047
     15 C          64.2646   83.5813   14.0703 C.ar    1  UNL1       -0.0027
     16 C          63.2059   83.4866   15.1287 C.ar    1  UNL1       -0.0003
     17 C          62.0568   82.5379   14.9573 C.ar    1  UNL1        0.0290
     18 C          61.9664   81.6837   13.7276 C.ar    1  UNL1        0.1361
     19 F          60.8173   80.7349   13.5563 F       1  UNL1       -0.2045
     20 C          65.2205   91.9308   14.7106 C.2     1  UNL1        0.2639
     21 O          65.8635   92.8763   15.6815 O.2     1  UNL1       -0.2685
     22 N          65.2829   92.2104   13.2382 N.am    1  UNL1       -0.2957
     23 H          64.8609   91.5898   12.6011 H       1  UNL1        0.1501
     24 C          65.9884   93.4354   12.7367 C.3     1  UNL1        0.1166
     25 C          66.6671   93.4153   11.3991 C.ar    1  UNL1       -0.0027
     26 C          67.4730   92.2199   10.9849 C.ar    1  UNL1       -0.0003
     27 C          68.1517   92.1997    9.6474 C.ar    1  UNL1        0.0290
     28 C          68.0245   93.3750    8.7240 C.ar    1  UNL1        0.1361
     29 F          68.7031   93.3549    7.3865 F       1  UNL1       -0.2045
     30 C          67.2186   94.5704    9.1383 C.ar    1  UNL1        0.0053
     31 C          67.0914   95.7457    8.2150 C.3     1  UNL1        0.0334
     32 C          66.5399   94.5905   10.4758 C.ar    1  UNL1       -0.0047
@<TRIPOS>BOND
     1    12    13    1
     2    13    14   ar
     3    14    15   ar
     4    15    11    1
     5    11     7    1
     6     7     8   am
     7     8     9    2
     8     8     1    1
     9     1     2   ar
    10     2     3   ar
    11     3    20    1
    12    20    21    2
    13    20    22   am
    14    22    24    1
    15    24    25    1
    16    25    26   ar
    17    26    27   ar
    18    27    28   ar
    19    28    29    1
    20    28    30   ar
    21    30    31    1
    22    30    32   ar
    23     3     4   ar
    24     4     5   ar
    25     5     6   ar
    26    15    16   ar
    27    16    17   ar
    28    17    18   ar
    29    18    19    1
    30    18    13   ar
    31     6     1   ar
    32    32    25   ar
    33     7    10    1
    34    22    23    1
@<TRIPOS>MOLECULE
*****
 32 34 0 0 0
SMALL
GASTEIGER

@<TRIPOS>ATOM
      1 C          64.5854   90.6742   15.2972 C.ar    1  UNL1        0.1378
      2 C          64.7980   89.3559   14.6140 C.ar    1  UNL1        0.0475
      3 C          64.0470   88.1422   15.0755 C.ar    1  UNL1        0.1378
      4 N          63.0832   88.2469   16.2201 N.ar    1  UNL1       -0.2193
      5 C          62.8705   89.5653   16.9033 C.ar    1  UNL1        0.1991
      6 N          63.6216   90.7789   16.4419 N.ar    1  UNL1       -0.2193
      7 N          65.3969   92.2218   13.3747 N.am    1  UNL1       -0.2957
      8 C          65.3365   91.8878   14.8357 C.2     1  UNL1        0.2639
      9 O          66.0271   92.7675   15.8354 O.2     1  UNL1       -0.2685
     10 H          64.9437   91.6445   12.7186 H       1  UNL1        0.1501
     11 C          66.1480   93.4355   12.9132 C.3     1  UNL1        0.1166
     12 C          67.0043   95.9736    8.4607 C.3     1  UNL1        0.0334
     13 C          67.1610   94.7446    9.3063 C.ar    1  UNL1        0.0053
     14 C          66.5762   94.7045   10.6869 C.ar    1  UNL1       -0.0047
     15 C          66.7329   93.4755   11.5325 C.ar    1  UNL1       -0.0027
     16 C          67.4744   92.2865   10.9973 C.ar    1  UNL1       -0.0003
     17 C          68.0593   92.3266    9.6167 C.ar    1  UNL1        0.0290
     18 C          67.9025   93.5556    8.7711 C.ar    1  UNL1        0.1361
     19 F          68.4874   93.5956    7.3904 F       1  UNL1       -0.2045
     20 C          64.2597   86.8238   14.3922 C.2     1  UNL1        0.2639
     21 O          63.5143   86.5042   13.1304 O.2     1  UNL1       -0.2685
     22 N          65.2177   85.8252   14.9708 N.am    1  UNL1       -0.2957
     23 H          65.7069   86.0350   15.7990 H       1  UNL1        0.1501
     24 C          65.4303   84.5069   14.2876 C.3     1  UNL1        0.1166
     25 C          64.2744   83.5730   14.0831 C.ar    1  UNL1       -0.0027
     26 C          63.2174   83.4453   15.1398 C.ar    1  UNL1       -0.0003
     27 C          62.0615   82.5115   14.9354 C.ar    1  UNL1        0.0290
     28 C          61.9626   81.7053   13.6743 C.ar    1  UNL1        0.1361
     29 F          60.8067   80.7714   13.4699 F       1  UNL1       -0.2045
     30 C          63.0196   81.8329   12.6177 C.ar    1  UNL1        0.0053
     31 C          62.9207   81.0267   11.3566 C.3     1  UNL1        0.0334
     32 C          64.1755   82.7668   12.8221 C.ar    1  UNL1       -0.0047
@<TRIPOS>BOND
     1    12    13    1
     2    13    14   ar
     3    14    15   ar
     4    15    11    1
     5    11     7    1
     6     7     8   am
     7     8     9    2
     8     8     1    1
     9     1     2   ar
    10     2     3   ar
    11     3    20    1
    12    20    21    2
    13    20    22   am
    14    22    24    1
    15    24    25    1
    16    25    26   ar
    17    26    27   ar
    18    27    28   ar
    19    28    29    1
    20    28    30   ar
    21    30    31    1
    22    30    32   ar
    23     3     4   ar
    24     4     5   ar
    25     5     6   ar
    26    15    16   ar
    27    16    17   ar
    28    17    18   ar
    29    18    19    1
    30    18    13   ar
    31     6     1   ar
    32    32    25   ar
    33     7    10    1
    34    22    23    1
@<TRIPOS>MOLECULE
*****
 32 34 0 0 0
SMALL
GASTEIGER

@<TRIPOS>ATOM
      1 C          63.7235   87.1330   14.9708 C.ar    1  UNL1        0.1378
      2 C          64.1972   88.5193   14.6487 C.ar    1  UNL1        0.0475
      3 C          64.0397   89.6188   15.6567 C.ar    1  UNL1        0.1378
      4 N          63.4085   89.3321   16.9869 N.ar    1  UNL1       -0.2193
      5 C          62.9348   87.9457   17.3091 C.ar    1  UNL1        0.1991
      6 N          63.0923   86.8462   16.3010 N.ar    1  UNL1       -0.2193
      7 N          62.9893   85.9875   12.7575 N.am    1  UNL1       -0.2957
      8 C          63.8810   86.0334   13.9627 C.2     1  UNL1        0.2639
      9 O          64.9303   84.9797   14.1600 O.2     1  UNL1       -0.2685
     10 H          62.3007   86.6791   12.6280 H       1  UNL1        0.1501
     11 C          63.1468   84.8880   11.7494 C.3     1  UNL1        0.1166
     12 C          59.5908   86.7977    8.4772 C.3     1  UNL1        0.0334
     13 C          60.8554   86.0272    8.7160 C.ar    1  UNL1        0.0053
     14 C          61.3688   85.8428   10.1132 C.ar    1  UNL1       -0.0047
     15 C          62.6335   85.0724   10.3521 C.ar    1  UNL1       -0.0027
     16 C          63.3848   84.4864    9.1936 C.ar    1  UNL1       -0.0003
     17 C          62.8714   84.6708    7.7963 C.ar    1  UNL1        0.0290
     18 C          61.6068   85.4412    7.5575 C.ar    1  UNL1        0.1361
     19 F          61.0934   85.6256    6.1602 F       1  UNL1       -0.2045
     20 C          64.5134   91.0052   15.3345 C.2     1  UNL1        0.2639
     21 O          63.9288   92.1838   16.0550 O.2     1  UNL1       -0.2685
     22 N          65.5716   91.2128   14.2920 N.am    1  UNL1       -0.2957
     23 H          65.9553   90.4392   13.8191 H       1  UNL1        0.1501
     24 C          66.0453   92.5991   13.9698 C.3     1  UNL1        0.1166
     25 C          66.4572   92.9445   12.5694 C.ar    1  UNL1       -0.0027
     26 C          67.2589   91.9679   11.7611 C.ar    1  UNL1       -0.0003
     27 C          67.6708   92.3132   10.3607 C.ar    1  UNL1        0.0290
     28 C          67.2810   93.6352    9.7686 C.ar    1  UNL1        0.1361
     29 F          67.6929   93.9806    8.3683 F       1  UNL1       -0.2045
     30 C          66.4792   94.6118   10.5770 C.ar    1  UNL1        0.0053
     31 C          66.0893   95.9337    9.9850 C.3     1  UNL1        0.0334
     32 C          66.0673   94.2664   11.9774 C.ar    1  UNL1       -0.0047
@<TRIPOS>BOND
     1    12    13    1
     2    13    14   ar
     3    14    15   ar
     4    15    11    1
     5    11     7    1
     6     7     8   am
     7     8     9    2
     8     8     1    1
     9     1     2   ar
    10     2     3   ar
    11     3    20    1
    12    20    21    2
    13    20    22   am
    14    22    24    1
    15    24    25    1
    16    25    26   ar
    17    26    27   ar
    18    27    28   ar
    19    28    29    1
    20    28    30   ar
    21    30    31    1
    22    30    32   ar
    23     3     4   ar
    24     4     5   ar
    25     5     6   ar
    26    15    16   ar
    27    16    17   ar
    28    17    18   ar
    29    18    19    1
    30    18    13   ar
    31     6     1   ar
    32    32    25   ar
    33     7    10    1
    34    22    23    1
@<TRIPOS>MOLECULE
*****
 32 34 0 0 0
SMALL
GASTEIGER

@<TRIPOS>ATOM
      1 C          63.8231   87.0207   14.7279 C.ar    1  UNL1        0.1378
      2 C          64.2407   88.4425   14.4948 C.ar    1  UNL1        0.0475
      3 C          64.0215   89.4731   15.5624 C.ar    1  UNL1        0.1378
      4 N          63.3848   89.0821   16.8630 N.ar    1  UNL1       -0.2193
      5 C          62.9673   87.6603   17.0962 C.ar    1  UNL1        0.1991
      6 N          63.1864   86.6297   16.0286 N.ar    1  UNL1       -0.2193
      7 N          63.1576   85.9649   12.4493 N.am    1  UNL1       -0.2957
      8 C          64.0423   85.9901   13.6604 C.2     1  UNL1        0.2639
      9 O          65.1461   84.9846   13.8039 O.2     1  UNL1       -0.2685
     10 H          62.4332   86.6248   12.3551 H       1  UNL1        0.1501
     11 C          63.3768   84.9342   11.3818 C.3     1  UNL1        0.1166
     12 C          61.3526   81.2462   14.4316 C.3     1  UNL1        0.0334
     13 C          62.1134   81.6409   13.2006 C.ar    1  UNL1        0.0053
     14 C          62.3647   83.0901   12.9067 C.ar    1  UNL1       -0.0047
     15 C          63.1255   83.4848   11.6757 C.ar    1  UNL1       -0.0027
     16 C          63.6351   82.4302   10.7386 C.ar    1  UNL1       -0.0003
     17 C          63.3838   80.9810   11.0326 C.ar    1  UNL1        0.0290
     18 C          62.6230   80.5863   12.2636 C.ar    1  UNL1        0.1361
     19 F          62.3717   79.1369   12.5575 F       1  UNL1       -0.2045
     20 C          64.4391   90.8949   15.3292 C.2     1  UNL1        0.2639
     21 O          63.8070   92.0015   16.1203 O.2     1  UNL1       -0.2685
     22 N          65.4887   91.2100   14.3051 N.am    1  UNL1       -0.2957
     23 H          65.9035   90.4837   13.7858 H       1  UNL1        0.1501
     24 C          65.9062   92.6317   14.0720 C.3     1  UNL1        0.1166
     25 C          66.3065   93.0801   12.6976 C.ar    1  UNL1       -0.0027
     26 C          65.9492   94.4580   12.2245 C.ar    1  UNL1       -0.0003
     27 C          66.3494   94.9064   10.8503 C.ar    1  UNL1        0.0290
     28 C          67.1071   93.9770    9.9490 C.ar    1  UNL1        0.1361
     29 F          67.5074   94.4254    8.5748 F       1  UNL1       -0.2045
     30 C          67.4645   92.5991   10.4221 C.ar    1  UNL1        0.0053
     31 C          68.2221   91.6697    9.5210 C.3     1  UNL1        0.0334
     32 C          67.0642   92.1507   11.7965 C.ar    1  UNL1       -0.0047
@<TRIPOS>BOND
     1    12    13    1
     2    13    14   ar
     3    14    15   ar
     4    15    11    1
     5    11     7    1
     6     7     8   am
     7     8     9    2
     8     8     1    1
     9     1     2   ar
    10     2     3   ar
    11     3    20    1
    12    20    21    2
    13    20    22   am
    14    22    24    1
    15    24    25    1
    16    25    26   ar
    17    26    27   ar
    18    27    28   ar
    19    28    29    1
    20    28    30   ar
    21    30    31    1
    22    30    32   ar
    23     3     4   ar
    24     4     5   ar
    25     5     6   ar
    26    15    16   ar
    27    16    17   ar
    28    17    18   ar
    29    18    19    1
    30    18    13   ar
    31     6     1   ar
    32    32    25   ar
    33     7    10    1
    34    22    23    1
@<TRIPOS>MOLECULE
*****
 32 34 0 0 0
SMALL
GASTEIGER

@<TRIPOS>ATOM
      1 C          62.1605   88.7824   11.2063 C.ar    1  UNL1        0.1378
      2 C          61.3493   89.1475    9.9986 C.ar    1  UNL1        0.0475
      3 C          60.5581   88.0948    9.2803 C.ar    1  UNL1        0.1378
      4 N          60.5782   86.6770    9.7697 N.ar    1  UNL1       -0.2193
      5 C          61.3895   86.3119   10.9775 C.ar    1  UNL1        0.1991
      6 N          62.1806   87.3646   11.6958 N.ar    1  UNL1       -0.2193
      7 N          63.7609   90.8281   11.1442 N.am    1  UNL1       -0.2957
      8 C          62.9516   89.8351   11.9246 C.2     1  UNL1        0.2639
      9 O          62.9334   89.8948   13.4234 O.2     1  UNL1       -0.2685
     10 H          63.7729   90.7889   10.1606 H       1  UNL1        0.1501
     11 C          64.5521   91.8808   11.8625 C.3     1  UNL1        0.1166
     12 C          68.8107   92.4282    8.9360 C.3     1  UNL1        0.0334
     13 C          67.6292   93.0315    9.6361 C.ar    1  UNL1        0.0053
     14 C          66.6814   92.1545   10.3992 C.ar    1  UNL1       -0.0047
     15 C          65.4999   92.7579   11.0994 C.ar    1  UNL1       -0.0027
     16 C          65.2663   94.2382   11.0363 C.ar    1  UNL1       -0.0003
     17 C          66.2141   95.1152   10.2732 C.ar    1  UNL1        0.0290
     18 C          67.3956   94.5119    9.5731 C.ar    1  UNL1        0.1361
     19 F          68.3434   95.3890    8.8099 F       1  UNL1       -0.2045
     20 C          59.7468   88.4599    8.0726 C.2     1  UNL1        0.2639
     21 O          58.6864   87.5251    7.5708 O.2     1  UNL1       -0.2685
     22 N          59.9960   89.7597    7.3667 N.am    1  UNL1       -0.2957
     23 H          60.6920   90.3732    7.6960 H       1  UNL1        0.1501
     24 C          59.1847   90.1247    6.1590 C.3     1  UNL1        0.1166
     25 C          59.7914   90.9637    5.0735 C.ar    1  UNL1       -0.0027
     26 C          58.9739   92.0273    4.4023 C.ar    1  UNL1       -0.0003
     27 C          59.5804   92.8663    3.3169 C.ar    1  UNL1        0.0290
     28 C          61.0046   92.6417    2.9027 C.ar    1  UNL1        0.1361
     29 F          61.6111   93.4807    1.8173 F       1  UNL1       -0.2045
     30 C          61.8221   91.5782    3.5739 C.ar    1  UNL1        0.0053
     31 C          63.2461   91.3536    3.1597 C.3     1  UNL1        0.0334
     32 C          61.2154   90.7392    4.6593 C.ar    1  UNL1       -0.0047
@<TRIPOS>BOND
     1    12    13    1
     2    13    14   ar
     3    14    15   ar
     4    15    11    1
     5    11     7    1
     6     7     8   am
     7     8     9    2
     8     8     1    1
     9     1     2   ar
    10     2     3   ar
    11     3    20    1
    12    20    21    2
    13    20    22   am
    14    22    24    1
    15    24    25    1
    16    25    26   ar
    17    26    27   ar
    18    27    28   ar
    19    28    29    1
    20    28    30   ar
    21    30    31    1
    22    30    32   ar
    23     3     4   ar
    24     4     5   ar
    25     5     6   ar
    26    15    16   ar
    27    16    17   ar
    28    17    18   ar
    29    18    19    1
    30    18    13   ar
    31     6     1   ar
    32    32    25   ar
    33     7    10    1
    34    22    23    1
@<TRIPOS>MOLECULE
*****
 32 34 0 0 0
SMALL
GASTEIGER

@<TRIPOS>ATOM
      1 C          60.5704   88.0554    9.2830 C.ar    1  UNL1        0.1378
      2 C          61.3686   89.1026   10.0015 C.ar    1  UNL1        0.0475
      3 C          62.1889   88.7290   11.2005 C.ar    1  UNL1        0.1378
      4 N          62.2110   87.3083   11.6810 N.ar    1  UNL1       -0.2193
      5 C          61.4128   86.2610   10.9626 C.ar    1  UNL1        0.1991
      6 N          60.5925   86.6345    9.7636 N.ar    1  UNL1       -0.2193
      7 N          60.0092   89.7233    7.3717 N.am    1  UNL1       -0.2957
      8 C          59.7501   88.4289    8.0841 C.2     1  UNL1        0.2639
      9 O          58.6706   87.5080    7.5974 O.2     1  UNL1       -0.2685
     10 H          60.7176   90.3277    7.6912 H       1  UNL1        0.1501
     11 C          59.1889   90.0968    6.1728 C.3     1  UNL1        0.1166
     12 C          63.2299   91.3587    3.1598 C.3     1  UNL1        0.0334
     13 C          61.8073   91.5758    3.5831 C.ar    1  UNL1        0.0053
     14 C          61.2094   90.7278    4.6663 C.ar    1  UNL1       -0.0047
     15 C          59.7868   90.9449    5.0896 C.ar    1  UNL1       -0.0027
     16 C          58.9622   92.0101    4.4298 C.ar    1  UNL1       -0.0003
     17 C          59.5602   92.8582    3.3467 C.ar    1  UNL1        0.0290
     18 C          60.9828   92.6410    2.9234 C.ar    1  UNL1        0.1361
     19 F          61.5807   93.4892    1.8402 F       1  UNL1       -0.2045
     20 C          62.9871   89.7763   11.9189 C.2     1  UNL1        0.2639
     21 O          63.0697   89.7602   13.4166 O.2     1  UNL1       -0.2685
     22 N          63.7027   90.8397   11.1397 N.am    1  UNL1       -0.2957
     23 H          63.6485   90.8503   10.1568 H       1  UNL1        0.1501
     24 C          64.5009   91.8869   11.8582 C.3     1  UNL1        0.1166
     25 C          65.4620   92.7510   11.0968 C.ar    1  UNL1       -0.0027
     26 C          65.2301   94.2301   11.0050 C.ar    1  UNL1       -0.0003
     27 C          66.1912   95.0941   10.2437 C.ar    1  UNL1        0.0290
     28 C          67.3843   94.4791    9.5741 C.ar    1  UNL1        0.1361
     29 F          68.3454   95.3431    8.8128 F       1  UNL1       -0.2045
     30 C          67.6163   93.0000    9.6659 C.ar    1  UNL1        0.0053
     31 C          68.8093   92.3849    8.9964 C.3     1  UNL1        0.0334
     32 C          66.6551   92.1359   10.4273 C.ar    1  UNL1       -0.0047
@<TRIPOS>BOND
     1    12    13    1
     2    13    14   ar
     3    14    15   ar
     4    15    11    1
     5    11     7    1
     6     7     8   am
     7     8     9    2
     8     8     1    1
     9     1     2   ar
    10     2     3   ar
    11     3    20    1
    12    20    21    2
    13    20    22   am
    14    22    24    1
    15    24    25    1
    16    25    26   ar
    17    26    27   ar
    18    27    28   ar
    19    28    29    1
    20    28    30   ar
    21    30    31    1
    22    30    32   ar
    23     3     4   ar
    24     4     5   ar
    25     5     6   ar
    26    15    16   ar
    27    16    17   ar
    28    17    18   ar
    29    18    19    1
    30    18    13   ar
    31     6     1   ar
    32    32    25   ar
    33     7    10    1
    34    22    23    1
@<TRIPOS>MOLECULE
*****
 32 34 0 0 0
SMALL
GASTEIGER

@<TRIPOS>ATOM
      1 C          62.1762   89.7145   12.2466 C.ar    1  UNL1        0.1378
      2 C          62.5984   88.4129   11.6321 C.ar    1  UNL1        0.0475
      3 C          61.5635   87.4460   11.1382 C.ar    1  UNL1        0.1378
      4 N          60.1063   87.7806   11.2588 N.ar    1  UNL1       -0.2193
      5 C          59.6840   89.0822   11.8734 C.ar    1  UNL1        0.1991
      6 N          60.7189   90.0491   12.3672 N.ar    1  UNL1       -0.2193
      7 N          64.1229   91.3665   11.7663 N.am    1  UNL1       -0.2957
      8 C          63.2111   90.6814   12.7405 C.2     1  UNL1        0.2639
      9 O          63.3342   90.9632   14.2087 O.2     1  UNL1       -0.2685
     10 H          64.0421   91.1815   10.8027 H       1  UNL1        0.1501
     11 C          65.1579   92.3335   12.2601 C.3     1  UNL1        0.1166
     12 C          68.8270   92.5483    8.5870 C.3     1  UNL1        0.0334
     13 C          67.8051   93.2347    9.4441 C.ar    1  UNL1        0.0053
     14 C          66.9924   92.4409   10.4236 C.ar    1  UNL1       -0.0047
     15 C          65.9706   93.1274   11.2807 C.ar    1  UNL1       -0.0027
     16 C          65.7614   94.6076   11.1583 C.ar    1  UNL1       -0.0003
     17 C          66.5741   95.4014   10.1789 C.ar    1  UNL1        0.0290
     18 C          67.5959   94.7150    9.3218 C.ar    1  UNL1        0.1361
     19 F          68.4086   95.5089    8.3423 F       1  UNL1       -0.2045
     20 C          61.9858   86.1444   10.5237 C.2     1  UNL1        0.2639
     21 O          61.3359   85.6662    9.2592 O.2     1  UNL1       -0.2685
     22 N          63.0580   85.3211   11.1736 N.am    1  UNL1       -0.2957
     23 H          63.4846   85.6349   12.0036 H       1  UNL1        0.1501
     24 C          63.4802   84.0195   10.5591 C.3     1  UNL1        0.1166
     25 C          63.1859   82.7276   11.2623 C.ar    1  UNL1       -0.0027
     26 C          62.9062   82.7227   12.7360 C.ar    1  UNL1       -0.0003
     27 C          62.6119   81.4309   13.4392 C.ar    1  UNL1        0.0290
     28 C          62.5973   80.1439   12.6687 C.ar    1  UNL1        0.1361
     29 F          62.3031   78.8521   13.3720 F       1  UNL1       -0.2045
     30 C          62.8771   80.1488   11.1951 C.ar    1  UNL1        0.0053
     31 C          62.8625   78.8619   10.4246 C.3     1  UNL1        0.0334
     32 C          63.1714   81.4407   10.4919 C.ar    1  UNL1       -0.0047
@<TRIPOS>BOND
     1    12    13    1
     2    13    14   ar
     3    14    15   ar
     4    15    11    1
     5    11     7    1
     6     7     8   am
     7     8     9    2
     8     8     1    1
     9     1     2   ar
    10     2     3   ar
    11     3    20    1
    12    20    21    2
    13    20    22   am
    14    22    24    1
    15    24    25    1
    16    25    26   ar
    17    26    27   ar
    18    27    28   ar
    19    28    29    1
    20    28    30   ar
    21    30    31    1
    22    30    32   ar
    23     3     4   ar
    24     4     5   ar
    25     5     6   ar
    26    15    16   ar
    27    16    17   ar
    28    17    18   ar
    29    18    19    1
    30    18    13   ar
    31     6     1   ar
    32    32    25   ar
    33     7    10    1
    34    22    23    1
