@<TRIPOS>MOLECULE
*****
 33 35 0 0 0
SMALL
GASTEIGER

@<TRIPOS>ATOM
      1 C          63.3328   84.0756   14.1564 C.3     1  UNL1        0.1092
      2 C          63.7615   84.0963   15.5937 C.3     1  UNL1        0.1598
      3 O          64.2156   85.3801   16.2225 O.3     1  UNL1       -0.3507
      4 C          64.2410   86.6434   15.4141 C.3     1  UNL1        0.1636
      5 C          63.8123   86.6228   13.9769 C.3     1  UNL1        0.1527
      6 N          63.3581   85.3389   13.3480 N.3     1  UNL1       -0.1496
      7 C          64.2597   82.5684   12.9863 C.3     1  UNL1        0.0015
      8 C          62.8786   82.7918   13.5276 C.3     1  UNL1        0.0175
      9 C          61.5952   82.8504   13.9420 C.3     1  UNL1        0.0015
     10 C          62.4245   81.5079   12.8987 C.3     1  UNL1        0.0015
     11 S          62.9294   85.3183   11.9107 S.O2    1  UNL1        0.0635
     12 O          61.6138   85.9282   12.2943 O.2     1  UNL1       -0.1528
     13 O          64.0576   84.7712   11.4103 O.2     1  UNL1       -0.1528
     14 C          62.5007   85.2977   10.4734 C.ar    1  UNL1        0.1223
     15 C          63.3400   84.5912    9.4505 C.ar    1  UNL1        0.0208
     16 C          62.9113   84.5706    8.0132 C.ar    1  UNL1        0.0128
     17 C          61.6433   85.2565    7.5989 C.ar    1  UNL1        0.0578
     18 CL         61.2146   85.2359    6.1616 Cl      1  UNL1       -0.0822
     19 C          60.8040   85.9630    8.6218 C.ar    1  UNL1        0.0128
     20 C          61.2327   85.9836   10.0591 C.ar    1  UNL1        0.0208
     21 C          63.8376   87.8860   13.1684 C.3     1  UNL1        0.2302
     22 O          62.9053   89.0115   13.5062 O.3     1  UNL1       -0.4329
     23 C          63.0965   89.7887   14.7749 C.2     1  UNL1        0.4049
     24 O          62.1331   89.6173   15.9118 O.2     1  UNL1       -0.2262
     25 N          64.2510   90.7372   14.9067 N.am    1  UNL1       -0.2460
     26 C          65.2144   90.9086   13.7698 C.3     1  UNL1        0.0968
     27 C          66.3689   91.8570   13.9016 C.3     1  UNL1        0.0242
     28 C          66.5601   92.6342   15.1703 C.3     1  UNL1        0.0327
     29 C          65.5967   92.4629   16.3071 C.3     1  UNL1        0.0242
     30 C          64.4421   91.5143   16.1753 C.3     1  UNL1        0.0968
     31 C          67.7146   93.5827   15.3020 C.3     1  UNL1        0.1372
     32 O          69.0982   93.1360   14.9329 O.3     1  UNL1       -0.3820
     33 H          69.3879   92.4417   15.5452 H       1  UNL1        0.2104
@<TRIPOS>BOND
     1     7     8    1
     2     8     9    1
     3     8    10    1
     4     1     8    1
     5     1     2    1
     6     2     3    1
     7     3     4    1
     8     4     5    1
     9     5    21    1
    10    21    22    1
    11    22    23    1
    12    23    24    2
    13    23    25   am
    14    25    26    1
    15    26    27    1
    16    27    28    1
    17    28    31    1
    18    31    32    1
    19    28    29    1
    20    29    30    1
    21     5     6    1
    22     6    11    1
    23    11    12    2
    24    11    13    2
    25    11    14    1
    26    14    15   ar
    27    15    16   ar
    28    16    17   ar
    29    17    18    1
    30    17    19   ar
    31    19    20   ar
    32     6     1    1
    33    20    14   ar
    34    30    25    1
    35    32    33    1
@<TRIPOS>MOLECULE
*****
 33 35 0 0 0
SMALL
GASTEIGER

@<TRIPOS>ATOM
      1 C          63.4337   84.2223   14.0437 C.3     1  UNL1        0.1092
      2 C          63.8814   84.2887   15.4738 C.3     1  UNL1        0.1598
      3 O          64.2500   85.6085   16.0838 O.3     1  UNL1       -0.3507
      4 C          64.1710   86.8620   15.2637 C.3     1  UNL1        0.1636
      5 C          63.7233   86.7956   13.8336 C.3     1  UNL1        0.1527
      6 N          63.3547   85.4757   13.2236 N.3     1  UNL1       -0.1496
      7 C          61.7035   82.9949   14.0564 C.3     1  UNL1        0.0015
      8 C          63.0651   82.9024   13.4337 C.3     1  UNL1        0.0175
      9 C          64.2408   82.6749   12.8106 C.3     1  UNL1        0.0015
     10 C          62.6964   81.5826   12.8237 C.3     1  UNL1        0.0015
     11 S          62.9070   85.4094   11.7935 S.O2    1  UNL1        0.0635
     12 O          61.5759   85.9802   12.1836 O.2     1  UNL1       -0.1528
     13 O          64.0470   84.8921   11.2881 O.2     1  UNL1       -0.1528
     14 C          62.4594   85.3430   10.3634 C.ar    1  UNL1        0.1223
     15 C          61.1807   86.0069    9.9462 C.ar    1  UNL1        0.0208
     16 C          60.7331   85.9405    8.5160 C.ar    1  UNL1        0.0128
     17 C          61.5642   85.2102    7.5031 C.ar    1  UNL1        0.0578
     18 CL         61.1165   85.1438    6.0731 Cl      1  UNL1       -0.0822
     19 C          62.8429   84.5463    7.9204 C.ar    1  UNL1        0.0128
     20 C          63.2905   84.6126    9.3505 C.ar    1  UNL1        0.0208
     21 C          63.6443   88.0491   13.0135 C.3     1  UNL1        0.2302
     22 O          63.1030   89.3095   13.6203 O.3     1  UNL1       -0.4329
     23 C          64.0439   90.3646   14.1218 C.2     1  UNL1        0.4049
     24 O          64.4110   90.4126   15.5755 O.2     1  UNL1       -0.2262
     25 N          64.6178   91.3717   13.1698 N.am    1  UNL1       -0.2460
     26 C          64.2507   91.3237   11.7162 C.3     1  UNL1        0.0968
     27 C          64.8246   92.3308   10.7641 C.3     1  UNL1        0.0242
     28 C          65.7655   93.3860   11.2657 C.3     1  UNL1        0.0327
     29 C          66.1325   93.4339   12.7193 C.3     1  UNL1        0.0242
     30 C          65.5586   92.4268   13.6713 C.3     1  UNL1        0.0968
     31 C          66.3393   94.3930   10.3136 C.3     1  UNL1        0.1372
     32 O          67.8022   94.3642    9.9831 O.3     1  UNL1       -0.3820
     33 H          68.3172   94.5791   10.7766 H       1  UNL1        0.2104
@<TRIPOS>BOND
     1     7     8    1
     2     8     9    1
     3     8    10    1
     4     1     8    1
     5     1     2    1
     6     2     3    1
     7     3     4    1
     8     4     5    1
     9     5    21    1
    10    21    22    1
    11    22    23    1
    12    23    24    2
    13    23    25   am
    14    25    26    1
    15    26    27    1
    16    27    28    1
    17    28    31    1
    18    31    32    1
    19    28    29    1
    20    29    30    1
    21     5     6    1
    22     6    11    1
    23    11    12    2
    24    11    13    2
    25    11    14    1
    26    14    15   ar
    27    15    16   ar
    28    16    17   ar
    29    17    18    1
    30    17    19   ar
    31    19    20   ar
    32     6     1    1
    33    20    14   ar
    34    30    25    1
    35    32    33    1
@<TRIPOS>MOLECULE
*****
 33 35 0 0 0
SMALL
GASTEIGER

@<TRIPOS>ATOM
      1 C          62.1569   89.2445   12.1686 C.3     1  UNL1        0.1092
      2 C          62.5033   89.9786   13.4300 C.3     1  UNL1        0.1598
      3 O          63.3122   89.2993   14.4951 O.3     1  UNL1       -0.3507
      4 C          63.7746   87.8860   14.2987 C.3     1  UNL1        0.1636
      5 C          63.4282   87.1519   13.0374 C.3     1  UNL1        0.1527
      6 N          62.6193   87.8312   11.9723 N.3     1  UNL1       -0.1496
      7 C          62.5758   90.6438   10.6303 C.3     1  UNL1        0.0015
      8 C          61.3480   89.9238   11.1036 C.3     1  UNL1        0.0175
      9 C          60.1625   89.3551   11.4094 C.3     1  UNL1        0.0015
     10 C          60.5391   90.6030   10.0385 C.3     1  UNL1        0.0015
     11 S          62.2730   87.0970   10.7109 S.O2    1  UNL1        0.0635
     12 O          61.2641   86.2806   11.4630 O.2     1  UNL1       -0.1528
     13 O          63.1361   87.7458    9.9006 O.2     1  UNL1       -0.1528
     14 C          61.9266   86.3630    9.4495 C.ar    1  UNL1        0.1223
     15 C          60.5661   86.5225    8.8383 C.ar    1  UNL1        0.0208
     16 C          60.2198   85.7884    7.5769 C.ar    1  UNL1        0.0128
     17 C          61.2339   84.8947    6.9267 C.ar    1  UNL1        0.0578
     18 CL         60.8876   84.1607    5.6653 Cl      1  UNL1       -0.0822
     19 C          62.5945   84.7352    7.5378 C.ar    1  UNL1        0.0128
     20 C          62.9408   85.4693    8.7992 C.ar    1  UNL1        0.0208
     21 C          63.8907   85.7385   12.8410 C.3     1  UNL1        0.2302
     22 O          64.3564   84.9316   14.0165 O.3     1  UNL1       -0.4329
     23 C          63.7412   83.5928   14.2983 C.2     1  UNL1        0.4049
     24 O          63.3534   83.2257   15.7000 O.2     1  UNL1       -0.2262
     25 N          63.5137   82.6213   13.1783 N.am    1  UNL1       -0.2460
     26 C          63.9014   82.9884   11.7766 C.3     1  UNL1        0.0968
     27 C          63.6740   82.0169   10.6566 C.3     1  UNL1        0.0242
     28 C          63.0588   80.6781   10.9384 C.3     1  UNL1        0.0327
     29 C          62.6711   80.3110   12.3401 C.3     1  UNL1        0.0242
     30 C          62.8985   81.2826   13.4601 C.3     1  UNL1        0.0968
     31 C          62.8314   79.7066    9.8184 C.3     1  UNL1        0.1372
     32 O          62.7040   78.2410   10.1112 O.3     1  UNL1       -0.3820
     33 H          63.5485   77.9042   10.4492 H       1  UNL1        0.2104
@<TRIPOS>BOND
     1     7     8    1
     2     8     9    1
     3     8    10    1
     4     1     8    1
     5     1     2    1
     6     2     3    1
     7     3     4    1
     8     4     5    1
     9     5    21    1
    10    21    22    1
    11    22    23    1
    12    23    24    2
    13    23    25   am
    14    25    26    1
    15    26    27    1
    16    27    28    1
    17    28    31    1
    18    31    32    1
    19    28    29    1
    20    29    30    1
    21     5     6    1
    22     6    11    1
    23    11    12    2
    24    11    13    2
    25    11    14    1
    26    14    15   ar
    27    15    16   ar
    28    16    17   ar
    29    17    18    1
    30    17    19   ar
    31    19    20   ar
    32     6     1    1
    33    20    14   ar
    34    30    25    1
    35    32    33    1
@<TRIPOS>MOLECULE
*****
 33 35 0 0 0
SMALL
GASTEIGER

@<TRIPOS>ATOM
      1 C          60.7048   87.8495    9.0123 C.3     1  UNL1        0.1092
      2 C          60.1733   89.1733    8.5486 C.3     1  UNL1        0.1598
      3 O          60.4597   90.4152    9.3396 O.3     1  UNL1       -0.3507
      4 C          61.2775   90.3333   10.5943 C.3     1  UNL1        0.1636
      5 C          61.8090   89.0095   11.0580 C.3     1  UNL1        0.1527
      6 N          61.5226   87.7676   10.2670 N.3     1  UNL1       -0.1496
      7 C          58.9536   86.7661    8.5028 C.3     1  UNL1        0.0015
      8 C          60.4184   86.6077    8.2212 C.3     1  UNL1        0.0175
      9 C          61.6955   86.3299    7.8829 C.3     1  UNL1        0.0015
     10 C          60.1321   85.3658    7.4302 C.3     1  UNL1        0.0015
     11 S          62.0542   86.4438   10.7307 S.O2    1  UNL1        0.0635
     12 O          60.9023   86.3148   11.6829 O.2     1  UNL1       -0.1528
     13 O          63.1414   86.4138    9.9311 O.2     1  UNL1       -0.1528
     14 C          62.5857   85.1200   11.1945 C.ar    1  UNL1        0.1223
     15 C          63.2596   84.1996   10.2205 C.ar    1  UNL1        0.0208
     16 C          63.7912   82.8758   10.6843 C.ar    1  UNL1        0.0128
     17 C          63.6487   82.4724   12.1219 C.ar    1  UNL1        0.0578
     18 CL         64.1802   81.1486   12.5856 Cl      1  UNL1       -0.0822
     19 C          62.9748   83.3928   13.0959 C.ar    1  UNL1        0.0128
     20 C          62.4433   84.7166   12.6322 C.ar    1  UNL1        0.0208
     21 C          62.6269   88.9275   12.3128 C.3     1  UNL1        0.2302
     22 O          62.6307   90.0726   13.2817 O.3     1  UNL1       -0.4329
     23 C          63.9317   90.6491   13.7564 C.2     1  UNL1        0.4049
     24 O          64.4134   90.3671   15.1487 O.2     1  UNL1       -0.2262
     25 N          64.7508   91.5075   12.8388 N.am    1  UNL1       -0.2460
     26 C          64.2691   91.7895   11.4465 C.3     1  UNL1        0.0968
     27 C          65.0883   92.6480   10.5290 C.3     1  UNL1        0.0242
     28 C          66.3892   93.2245   11.0036 C.3     1  UNL1        0.0327
     29 C          66.8710   92.9425   12.3959 C.3     1  UNL1        0.0242
     30 C          66.0517   92.0840   13.3135 C.3     1  UNL1        0.0968
     31 C          67.2084   94.0829   10.0861 C.3     1  UNL1        0.1372
     32 O          68.6485   93.7484    9.8327 O.3     1  UNL1       -0.3820
     33 H          69.1550   93.8579   10.6526 H       1  UNL1        0.2104
@<TRIPOS>BOND
     1     7     8    1
     2     8     9    1
     3     8    10    1
     4     1     8    1
     5     1     2    1
     6     2     3    1
     7     3     4    1
     8     4     5    1
     9     5    21    1
    10    21    22    1
    11    22    23    1
    12    23    24    2
    13    23    25   am
    14    25    26    1
    15    26    27    1
    16    27    28    1
    17    28    31    1
    18    31    32    1
    19    28    29    1
    20    29    30    1
    21     5     6    1
    22     6    11    1
    23    11    12    2
    24    11    13    2
    25    11    14    1
    26    14    15   ar
    27    15    16   ar
    28    16    17   ar
    29    17    18    1
    30    17    19   ar
    31    19    20   ar
    32     6     1    1
    33    20    14   ar
    34    30    25    1
    35    32    33    1
@<TRIPOS>MOLECULE
*****
 33 35 0 0 0
SMALL
GASTEIGER

@<TRIPOS>ATOM
      1 C          60.6698   87.8336    8.9185 C.3     1  UNL1        0.1092
      2 C          60.1321   89.1460    8.4303 C.3     1  UNL1        0.1598
      3 O          60.4192   90.4049    9.1938 O.3     1  UNL1       -0.3507
      4 C          61.2441   90.3513   10.4454 C.3     1  UNL1        0.1636
      5 C          61.7818   89.0389   10.9336 C.3     1  UNL1        0.1527
      6 N          61.4947   87.7801   10.1701 N.3     1  UNL1       -0.1496
      7 C          58.9216   86.7224    8.4611 C.3     1  UNL1        0.0015
      8 C          60.3826   86.5748    8.1550 C.3     1  UNL1        0.0175
      9 C          61.6562   86.3048    7.7979 C.3     1  UNL1        0.0015
     10 C          60.0955   85.3160    7.3916 C.3     1  UNL1        0.0015
     11 S          62.0324   86.4676   10.6584 S.O2    1  UNL1        0.0635
     12 O          60.8625   86.3338   11.5875 O.2     1  UNL1       -0.1528
     13 O          63.1366   86.4432    9.8820 O.2     1  UNL1       -0.1528
     14 C          62.5702   85.1552   11.1466 C.ar    1  UNL1        0.1223
     15 C          62.4499   84.7878   12.5959 C.ar    1  UNL1        0.0208
     16 C          62.9877   83.4753   13.0841 C.ar    1  UNL1        0.0128
     17 C          63.6458   82.5304   12.1230 C.ar    1  UNL1        0.0578
     18 CL         64.1836   81.2180   12.6112 Cl      1  UNL1       -0.0822
     19 C          63.7662   82.8978   10.6737 C.ar    1  UNL1        0.0128
     20 C          63.2284   84.2101   10.1855 C.ar    1  UNL1        0.0208
     21 C          62.6068   88.9853   12.1853 C.3     1  UNL1        0.2302
     22 O          63.5779   90.0867   12.4912 O.3     1  UNL1       -0.4329
     23 C          63.7901   90.5271   13.9094 C.2     1  UNL1        0.4049
     24 O          62.7496   90.2343   14.9493 O.2     1  UNL1       -0.2262
     25 N          65.0429   91.2604   14.2875 N.am    1  UNL1       -0.2460
     26 C          66.0834   91.5532   13.2476 C.3     1  UNL1        0.0968
     27 C          67.3361   92.2864   13.6257 C.3     1  UNL1        0.0242
     28 C          67.5483   92.7268   15.0439 C.3     1  UNL1        0.0327
     29 C          66.5078   92.4340   16.0838 C.3     1  UNL1        0.0242
     30 C          65.2550   91.7007   15.7056 C.3     1  UNL1        0.0968
     31 C          68.8010   93.4601   15.4220 C.3     1  UNL1        0.1372
     32 O          68.7318   94.6296   16.3588 O.3     1  UNL1       -0.3820
     33 H          68.2414   95.3527   15.9375 H       1  UNL1        0.2104
@<TRIPOS>BOND
     1     7     8    1
     2     8     9    1
     3     8    10    1
     4     1     8    1
     5     1     2    1
     6     2     3    1
     7     3     4    1
     8     4     5    1
     9     5    21    1
    10    21    22    1
    11    22    23    1
    12    23    24    2
    13    23    25   am
    14    25    26    1
    15    26    27    1
    16    27    28    1
    17    28    31    1
    18    31    32    1
    19    28    29    1
    20    29    30    1
    21     5     6    1
    22     6    11    1
    23    11    12    2
    24    11    13    2
    25    11    14    1
    26    14    15   ar
    27    15    16   ar
    28    16    17   ar
    29    17    18    1
    30    17    19   ar
    31    19    20   ar
    32     6     1    1
    33    20    14   ar
    34    30    25    1
    35    32    33    1
@<TRIPOS>MOLECULE
*****
 33 35 0 0 0
SMALL
GASTEIGER

@<TRIPOS>ATOM
      1 C          56.7426   93.8834   -3.6606 C.3     1  UNL1        0.1092
      2 C          55.9672   94.3527   -4.8557 C.3     1  UNL1        0.1598
      3 O          56.3350   95.6413   -5.5296 O.3     1  UNL1       -0.3507
      4 C          57.4782   96.4607   -5.0084 C.3     1  UNL1        0.1636
      5 C          58.2536   95.9914   -3.8132 C.3     1  UNL1        0.1527
      6 N          57.8858   94.7028   -3.1393 N.3     1  UNL1       -0.1496
      7 C          57.1284   91.8314   -4.0352 C.3     1  UNL1        0.0015
      8 C          56.3749   92.5948   -2.9866 C.3     1  UNL1        0.0175
      9 C          55.6614   93.1353   -1.9761 C.3     1  UNL1        0.0015
     10 C          56.0071   91.3062   -2.3127 C.3     1  UNL1        0.0015
     11 S          58.6613   94.2335   -1.9441 S.O2    1  UNL1        0.0635
     12 O          57.8565   95.1438   -1.0645 O.2     1  UNL1       -0.1528
     13 O          59.4653   93.3689   -2.5987 O.2     1  UNL1       -0.1528
     14 C          59.4367   93.7642   -0.7489 C.ar    1  UNL1        0.1223
     15 C          60.2132   92.4825   -0.8147 C.ar    1  UNL1        0.0208
     16 C          60.9886   92.0132    0.3806 C.ar    1  UNL1        0.0128
     17 C          60.9877   92.8257    1.6414 C.ar    1  UNL1        0.0578
     18 CL         61.7631   92.3564    2.8366 Cl      1  UNL1       -0.0822
     19 C          60.2113   94.1074    1.7072 C.ar    1  UNL1        0.0128
     20 C          59.4358   94.5767    0.5120 C.ar    1  UNL1        0.0208
     21 C          59.3969   96.8108   -3.2919 C.3     1  UNL1        0.2302
     22 O          60.7225   96.7804   -3.9931 O.3     1  UNL1       -0.4329
     23 C          61.5137   95.5071   -4.0465 C.2     1  UNL1        0.4049
     24 O          61.5253   94.6833   -5.3000 O.2     1  UNL1       -0.2262
     25 N          62.2933   95.0576   -2.8464 N.am    1  UNL1       -0.2460
     26 C          62.2817   95.8814   -1.5929 C.3     1  UNL1        0.0968
     27 C          63.0613   95.4320   -0.3929 C.3     1  UNL1        0.0242
     28 C          63.8525   94.1587   -0.4462 C.3     1  UNL1        0.0327
     29 C          63.8641   93.3349   -1.6997 C.3     1  UNL1        0.0242
     30 C          63.0844   93.7844   -2.8998 C.3     1  UNL1        0.0968
     31 C          64.6321   93.7092    0.7538 C.3     1  UNL1        0.1372
     32 O          65.7578   92.7310    0.5936 O.3     1  UNL1       -0.3820
     33 H          65.4044   91.8766    0.3003 H       1  UNL1        0.2104
@<TRIPOS>BOND
     1     7     8    1
     2     8     9    1
     3     8    10    1
     4     1     8    1
     5     1     2    1
     6     2     3    1
     7     3     4    1
     8     4     5    1
     9     5    21    1
    10    21    22    1
    11    22    23    1
    12    23    24    2
    13    23    25   am
    14    25    26    1
    15    26    27    1
    16    27    28    1
    17    28    31    1
    18    31    32    1
    19    28    29    1
    20    29    30    1
    21     5     6    1
    22     6    11    1
    23    11    12    2
    24    11    13    2
    25    11    14    1
    26    14    15   ar
    27    15    16   ar
    28    16    17   ar
    29    17    18    1
    30    17    19   ar
    31    19    20   ar
    32     6     1    1
    33    20    14   ar
    34    30    25    1
    35    32    33    1
@<TRIPOS>MOLECULE
*****
 33 35 0 0 0
SMALL
GASTEIGER

@<TRIPOS>ATOM
      1 C          63.6564   84.8992   12.8942 C.3     1  UNL1        0.1092
      2 C          64.5500   84.5062   14.0330 C.3     1  UNL1        0.1598
      3 O          64.9824   85.5341   15.0363 O.3     1  UNL1       -0.3507
      4 C          64.5211   86.9549   14.9008 C.3     1  UNL1        0.1636
      5 C          63.6275   87.3479   13.7620 C.3     1  UNL1        0.1527
      6 N          63.1951   86.3200   12.7587 N.3     1  UNL1       -0.1496
      7 C          62.3606   83.2201   12.9302 C.3     1  UNL1        0.0015
      8 C          63.2241   83.8713   11.8909 C.3     1  UNL1        0.0175
      9 C          63.9479   84.3403   10.8524 C.3     1  UNL1        0.0015
     10 C          62.7917   82.8435   10.8876 C.3     1  UNL1        0.0015
     11 S          62.3015   86.7131   11.6198 S.O2    1  UNL1        0.0635
     12 O          63.4387   87.4560   10.9838 O.2     1  UNL1       -0.1528
     13 O          61.1875   86.0925   12.0631 O.2     1  UNL1       -0.1528
     14 C          61.4078   87.1061   10.4811 C.ar    1  UNL1        0.1223
     15 C          60.9810   88.5352   10.3213 C.ar    1  UNL1        0.0208
     16 C          60.0873   88.9282    9.1824 C.ar    1  UNL1        0.0128
     17 C          59.6204   87.8921    8.2034 C.ar    1  UNL1        0.0578
     18 CL         58.7267   88.2851    7.0647 Cl      1  UNL1       -0.0822
     19 C          60.0472   86.4630    8.3632 C.ar    1  UNL1        0.0128
     20 C          60.9408   86.0700    9.5020 C.ar    1  UNL1        0.0208
     21 C          63.1662   88.7688   13.6264 C.3     1  UNL1        0.2302
     22 O          63.9760   89.7474   12.8287 O.3     1  UNL1       -0.4329
     23 C          64.7021   90.8617   13.5224 C.2     1  UNL1        0.4049
     24 O          64.8914   90.8219   15.0099 O.2     1  UNL1       -0.2262
     25 N          65.2389   92.0157   12.7287 N.am    1  UNL1       -0.2460
     26 C          65.0496   92.0555   11.2412 C.3     1  UNL1        0.0968
     27 C          65.5864   93.2095   10.4475 C.3     1  UNL1        0.0242
     28 C          66.3125   94.3238   11.1412 C.3     1  UNL1        0.0327
     29 C          66.5017   94.2840   12.6287 C.3     1  UNL1        0.0242
     30 C          65.9649   93.1299   13.4224 C.3     1  UNL1        0.0968
     31 C          66.8493   95.4778   10.3475 C.3     1  UNL1        0.1372
     32 O          68.1185   95.3229    9.5632 O.3     1  UNL1       -0.3820
     33 H          68.8605   95.1860   10.1727 H       1  UNL1        0.2104
@<TRIPOS>BOND
     1     7     8    1
     2     8     9    1
     3     8    10    1
     4     1     8    1
     5     1     2    1
     6     2     3    1
     7     3     4    1
     8     4     5    1
     9     5    21    1
    10    21    22    1
    11    22    23    1
    12    23    24    2
    13    23    25   am
    14    25    26    1
    15    26    27    1
    16    27    28    1
    17    28    31    1
    18    31    32    1
    19    28    29    1
    20    29    30    1
    21     5     6    1
    22     6    11    1
    23    11    12    2
    24    11    13    2
    25    11    14    1
    26    14    15   ar
    27    15    16   ar
    28    16    17   ar
    29    17    18    1
    30    17    19   ar
    31    19    20   ar
    32     6     1    1
    33    20    14   ar
    34    30    25    1
    35    32    33    1
@<TRIPOS>MOLECULE
*****
 33 35 0 0 0
SMALL
GASTEIGER

@<TRIPOS>ATOM
      1 C          63.7192   84.6865   13.1277 C.3     1  UNL1        0.1092
      2 C          64.6161   84.4839   14.3128 C.3     1  UNL1        0.1598
      3 O          65.0696   85.6638   15.1205 O.3     1  UNL1       -0.3507
      4 C          64.6262   87.0461   14.7431 C.3     1  UNL1        0.1636
      5 C          63.7293   87.2486   13.5580 C.3     1  UNL1        0.1527
      6 N          63.2758   86.0688   12.7503 N.3     1  UNL1       -0.1496
      7 C          62.2966   83.1373   13.4037 C.3     1  UNL1        0.0015
      8 C          63.2657   83.5066   12.3200 C.3     1  UNL1        0.0175
      9 C          64.0816   83.7072   11.2634 C.3     1  UNL1        0.0015
     10 C          62.8122   82.3268   11.5123 C.3     1  UNL1        0.0015
     11 S          62.3789   86.2714   11.5652 S.O2    1  UNL1        0.0635
     12 O          61.1826   85.9727   12.4194 O.2     1  UNL1       -0.1528
     13 O          63.3491   86.5604   10.6721 O.2     1  UNL1       -0.1528
     14 C          61.4820   86.4740   10.3800 C.ar    1  UNL1        0.1223
     15 C          60.3372   87.4397   10.4622 C.ar    1  UNL1        0.0208
     16 C          59.4403   87.6422    9.2770 C.ar    1  UNL1        0.0128
     17 C          59.6883   86.8791    8.0097 C.ar    1  UNL1        0.0578
     18 CL         58.7914   87.0817    6.8246 Cl      1  UNL1       -0.0822
     19 C          60.8331   85.9134    7.9275 C.ar    1  UNL1        0.0128
     20 C          61.7300   85.7108    9.1127 C.ar    1  UNL1        0.0208
     21 C          63.2859   88.6310   13.1806 C.3     1  UNL1        0.2302
     22 O          64.2494   89.7774   13.2665 O.3     1  UNL1       -0.4329
     23 C          64.3265   90.6001   14.5185 C.2     1  UNL1        0.4049
     24 O          63.1617   90.6397   15.4628 O.2     1  UNL1       -0.2262
     25 N          65.5683   91.3831   14.8260 N.am    1  UNL1       -0.2460
     26 C          66.7331   91.3435   13.8817 C.3     1  UNL1        0.0968
     27 C          67.9749   92.1266   14.1893 C.3     1  UNL1        0.0242
     28 C          68.0521   92.9492   15.4412 C.3     1  UNL1        0.0327
     29 C          66.8873   92.9888   16.3856 C.3     1  UNL1        0.0242
     30 C          65.6454   92.2057   16.0780 C.3     1  UNL1        0.0968
     31 C          69.2939   93.7323   15.7488 C.3     1  UNL1        0.1372
     32 O          69.1912   95.0629   16.4335 O.3     1  UNL1       -0.3820
     33 H          68.7423   95.6935   15.8490 H       1  UNL1        0.2104
@<TRIPOS>BOND
     1     7     8    1
     2     8     9    1
     3     8    10    1
     4     1     8    1
     5     1     2    1
     6     2     3    1
     7     3     4    1
     8     4     5    1
     9     5    21    1
    10    21    22    1
    11    22    23    1
    12    23    24    2
    13    23    25   am
    14    25    26    1
    15    26    27    1
    16    27    28    1
    17    28    31    1
    18    31    32    1
    19    28    29    1
    20    29    30    1
    21     5     6    1
    22     6    11    1
    23    11    12    2
    24    11    13    2
    25    11    14    1
    26    14    15   ar
    27    15    16   ar
    28    16    17   ar
    29    17    18    1
    30    17    19   ar
    31    19    20   ar
    32     6     1    1
    33    20    14   ar
    34    30    25    1
    35    32    33    1
@<TRIPOS>MOLECULE
*****
 33 35 0 0 0
SMALL
GASTEIGER

@<TRIPOS>ATOM
      1 C          59.9294   88.3902   10.0258 C.3     1  UNL1        0.1092
      2 C          58.9845   87.7201    9.0728 C.3     1  UNL1        0.1598
      3 O          59.4061   86.4757    8.3493 O.3     1  UNL1       -0.3507
      4 C          60.7726   85.9012    8.5787 C.3     1  UNL1        0.1636
      5 C          61.7175   86.5713    9.5317 C.3     1  UNL1        0.1527
      6 N          61.2959   87.8158   10.2552 N.3     1  UNL1       -0.1496
      7 C          60.0111   90.4685    9.6085 C.3     1  UNL1        0.0015
      8 C          59.5077   89.6347   10.7493 C.3     1  UNL1        0.0175
      9 C          59.0118   89.0264   11.8477 C.3     1  UNL1        0.0015
     10 C          59.0861   90.8791   11.4728 C.3     1  UNL1        0.0015
     11 S          62.2408   88.4859   11.2082 S.O2    1  UNL1        0.0635
     12 O          62.7805   89.3215   10.0856 O.2     1  UNL1       -0.1528
     13 O          61.8623   87.8129   12.3156 O.2     1  UNL1       -0.1528
     14 C          63.1857   89.1559   12.1612 C.ar    1  UNL1        0.1223
     15 C          63.6225   90.5696   11.9147 C.ar    1  UNL1        0.0208
     16 C          64.5674   91.2396   12.8678 C.ar    1  UNL1        0.0128
     17 C          65.0755   90.4959   14.0672 C.ar    1  UNL1        0.0578
     18 CL         66.0204   91.1659   15.0202 Cl      1  UNL1       -0.0822
     19 C          64.6388   89.0822   14.3137 C.ar    1  UNL1        0.0128
     20 C          63.6939   88.4122   13.3607 C.ar    1  UNL1        0.0208
     21 C          63.0841   85.9969    9.7611 C.3     1  UNL1        0.2302
     22 O          63.3886   84.5919    9.3333 O.3     1  UNL1       -0.4329
     23 C          63.9678   83.6176   10.3159 C.2     1  UNL1        0.4049
     24 O          64.8833   82.5283    9.8410 O.2     1  UNL1       -0.2262
     25 N          63.6316   83.7325   11.7731 N.am    1  UNL1       -0.2460
     26 C          62.7162   84.8218   12.2480 C.3     1  UNL1        0.0968
     27 C          62.3800   84.9367   13.7053 C.3     1  UNL1        0.0242
     28 C          62.9593   83.9624   14.6878 C.3     1  UNL1        0.0327
     29 C          63.8747   82.8732   14.2129 C.3     1  UNL1        0.0242
     30 C          64.2109   82.7583   12.7556 C.3     1  UNL1        0.0968
     31 C          62.6231   84.0774   16.1451 C.3     1  UNL1        0.1372
     32 O          62.0040   85.3368   16.6749 O.3     1  UNL1       -0.3820
     33 H          62.6382   86.0666   16.5965 H       1  UNL1        0.2104
@<TRIPOS>BOND
     1     7     8    1
     2     8     9    1
     3     8    10    1
     4     1     8    1
     5     1     2    1
     6     2     3    1
     7     3     4    1
     8     4     5    1
     9     5    21    1
    10    21    22    1
    11    22    23    1
    12    23    24    2
    13    23    25   am
    14    25    26    1
    15    26    27    1
    16    27    28    1
    17    28    31    1
    18    31    32    1
    19    28    29    1
    20    29    30    1
    21     5     6    1
    22     6    11    1
    23    11    12    2
    24    11    13    2
    25    11    14    1
    26    14    15   ar
    27    15    16   ar
    28    16    17   ar
    29    17    18    1
    30    17    19   ar
    31    19    20   ar
    32     6     1    1
    33    20    14   ar
    34    30    25    1
    35    32    33    1
