@<TRIPOS>MOLECULE
*****
 56 61 0 0 0
SMALL
GASTEIGER

@<TRIPOS>ATOM
      1 N          62.7106   84.1270    9.4123 N.3     1  UNL1       -0.1862
      2 C          61.9956   84.2143    8.0966 C.3     1  UNL1        0.1775
      3 C          61.1985   85.4384    7.7559 C.2     1  UNL1        0.2452
      4 O          60.4834   85.5256    6.4401 O.2     1  UNL1       -0.2732
      5 N          61.1164   86.5753    8.7309 N.am    1  UNL1       -0.2541
      6 C          60.3193   87.7995    8.3902 C.3     1  UNL1        0.1577
      7 C          60.2373   88.9364    9.3651 C.2     1  UNL1        0.2445
      8 O          59.4402   90.1606    9.0244 O.2     1  UNL1       -0.2731
      9 N          60.9523   88.8492   10.6809 N.am    1  UNL1       -0.2705
     10 C          61.7494   87.6251   11.0216 C.3     1  UNL1        0.1359
     11 C          61.8315   86.4881   10.0466 C.3     1  UNL1        0.1908
     12 N          62.6286   85.2640   10.3873 N.am    1  UNL1       -0.1863
     13 C          63.3436   85.1768   11.7030 C.2     1  UNL1        0.3191
     14 O          63.2616   86.3137   12.6780 O.2     1  UNL1       -0.2512
     15 N          64.1407   83.9526   12.0438 N.am    1  UNL1       -0.2836
     16 H          64.1946   83.2064   11.4038 H       1  UNL1        0.1513
     17 C          63.5077   82.9029    9.7530 C.3     1  UNL1        0.1188
     18 C          63.0231   80.3816   10.1511 C.2     1  UNL1       -0.0034
     19 C          62.8921   81.8131   10.5797 C.2     1  UNL1       -0.0071
     20 C          59.6043   87.8867    7.0745 C.3     1  UNL1        0.0556
     21 C          59.5185   89.1990    6.3530 C.ar    1  UNL1       -0.0198
     22 C          60.7591   89.8298    5.7935 C.ar    1  UNL1       -0.0011
     23 C          60.6733   91.1421    5.0720 C.ar    1  UNL1        0.0363
     24 C          59.3470   91.8237    4.9102 C.ar    1  UNL1        0.1337
     25 O          59.2612   93.1360    4.1887 O.3     1  UNL1       -0.5055
     26 C          58.1063   91.1929    5.4697 C.ar    1  UNL1        0.0363
     27 C          58.1921   89.8806    6.1912 C.ar    1  UNL1       -0.0011
     28 H          60.0361   93.5300    3.8392 H       1  UNL1        0.2922
     29 C          60.8703   89.9862   11.6559 C.3     1  UNL1        0.1217
     30 C          62.0391   90.3001   12.5421 C.ar    1  UNL1        0.0135
     31 C          62.0209   89.8836   13.9830 C.ar    1  UNL1       -0.0012
     32 C          63.1897   90.1975   14.8693 C.ar    1  UNL1       -0.0002
     33 C          64.3766   90.9278   14.3146 C.ar    1  UNL1        0.0016
     34 C          64.3948   91.3442   12.8737 C.ar    1  UNL1        0.0214
     35 C          65.4178   92.0709   12.0518 C.ar    1  UNL1        0.0719
     36 C          64.8812   92.2061   10.6576 C.ar    1  UNL1        0.0805
     37 N          63.5267   91.5630   10.6178 N.ar    1  UNL1       -0.3241
     38 C          62.6302   91.4691    9.4190 C.3     1  UNL1        0.1305
     39 C          63.2261   91.0304   11.9874 C.ar    1  UNL1        0.0577
     40 C          66.7445   92.5740   12.5386 C.2     1  UNL1        0.2473
     41 O          66.8778   93.9860   13.0269 O.2     1  UNL1       -0.2701
     42 N          67.9377   91.6651   12.5372 N.am    1  UNL1       -0.3008
     43 H          67.8502   90.7383   12.2167 H       1  UNL1        0.1497
     44 C          69.2643   92.1681   13.0240 C.3     1  UNL1        0.0911
     45 C          69.6611   91.9713   14.4571 C.3     1  UNL1        0.0386
     46 C          68.6076   91.7791   15.5074 C.3     1  UNL1        0.0739
     47 N          67.8375   92.9590   16.0220 N.3     1  UNL1       -0.2703
     48 C          66.3878   92.8112   16.3777 C.3     1  UNL1        0.0897
     49 C          68.5171   94.2867   16.1809 C.3     1  UNL1        0.0897
     50 C          64.8558   83.8654   13.3594 C.3     1  UNL1        0.1177
     51 C          64.2870   84.5466   14.5688 C.ar    1  UNL1       -0.0025
     52 C          64.8484   85.8615   15.0224 C.ar    1  UNL1       -0.0026
     53 C          64.2797   86.5427   16.2317 C.ar    1  UNL1       -0.0003
     54 C          63.1495   85.9090   16.9874 C.ar    1  UNL1       -0.0000
     55 C          62.5881   84.5941   16.5338 C.ar    1  UNL1       -0.0003
     56 C          63.1568   83.9129   15.3245 C.ar    1  UNL1       -0.0026
@<TRIPOS>BOND
     1    18    19    2
     2    19    17    1
     3    17     1    1
     4     1     2    1
     5     2     3    1
     6     3     4    2
     7     3     5   am
     8     5     6    1
     9     6    20    1
    10    20    21    1
    11    21    22   ar
    12    22    23   ar
    13    23    24   ar
    14    24    25    1
    15    24    26   ar
    16    26    27   ar
    17     6     7    1
    18     7     8    2
    19     7     9   am
    20     9    29    1
    21    29    30    1
    22    30    31   ar
    23    31    32   ar
    24    32    33   ar
    25    33    34   ar
    26    34    35   ar
    27    35    40    1
    28    40    41    2
    29    40    42   am
    30    42    44    1
    31    44    45    1
    32    45    46    1
    33    46    47    1
    34    47    48    1
    35    47    49    1
    36    35    36   ar
    37    36    37   ar
    38    37    38    1
    39    37    39   ar
    40     9    10    1
    41    11    10    1
    42    11    12    1
    43    12    13   am
    44    13    14    2
    45    13    15   am
    46    15    50    1
    47    50    51    1
    48    51    52   ar
    49    52    53   ar
    50    53    54   ar
    51    54    55   ar
    52    55    56   ar
    53    12     1    1
    54    56    51   ar
    55    11     5    1
    56    27    21   ar
    57    39    30   ar
    58    39    34   ar
    59    25    28    1
    60    42    43    1
    61    15    16    1
@<TRIPOS>MOLECULE
*****
 56 61 0 0 0
SMALL
GASTEIGER

@<TRIPOS>ATOM
      1 N          61.2317   85.8517    8.2925 N.3     1  UNL1       -0.1862
      2 C          62.0919   84.7007    8.7228 C.3     1  UNL1        0.1775
      3 C          62.8553   84.7757   10.0119 C.2     1  UNL1        0.2452
      4 O          63.7155   83.6246   10.4422 O.2     1  UNL1       -0.2732
      5 N          62.7585   86.0018   10.8706 N.am    1  UNL1       -0.2541
      6 C          63.5219   86.0768   12.1596 C.3     1  UNL1        0.1577
      7 C          63.4251   87.3028   13.0183 C.2     1  UNL1        0.2445
      8 O          64.1885   87.3779   14.3073 O.2     1  UNL1       -0.2731
      9 N          62.5649   88.4539   12.5880 N.am    1  UNL1       -0.2705
     10 C          61.8015   88.3789   11.2989 C.3     1  UNL1        0.1359
     11 C          61.8983   87.1528   10.4402 C.3     1  UNL1        0.1908
     12 N          61.1350   87.0777    9.1512 N.am    1  UNL1       -0.1863
     13 C          60.2748   88.2288    8.7208 C.2     1  UNL1        0.3191
     14 O          60.1780   89.4549    9.5795 O.2     1  UNL1       -0.2512
     15 N          59.5114   88.1538    7.4318 N.am    1  UNL1       -0.2836
     16 H          59.5749   87.3491    6.8682 H       1  UNL1        0.1513
     17 C          60.4684   85.7766    7.0034 C.3     1  UNL1        0.1188
     18 C          62.0145   84.3296    5.4983 C.2     1  UNL1       -0.0034
     19 C          60.6619   84.6073    6.0842 C.2     1  UNL1       -0.0071
     20 C          64.3820   84.9258   12.5900 C.3     1  UNL1        0.0556
     21 C          63.7490   83.6738   13.1207 C.ar    1  UNL1       -0.0198
     22 C          64.2854   82.3326   12.7164 C.ar    1  UNL1       -0.0011
     23 C          63.6524   81.0806   13.2472 C.ar    1  UNL1        0.0363
     24 C          62.4829   81.1697   14.1822 C.ar    1  UNL1        0.1337
     25 O          61.8499   79.9177   14.7130 O.3     1  UNL1       -0.5055
     26 C          61.9464   82.5109   14.5866 C.ar    1  UNL1        0.0363
     27 C          62.5795   83.7629   14.0558 C.ar    1  UNL1       -0.0011
     28 H          62.1850   79.0799   14.4604 H       1  UNL1        0.2922
     29 C          62.4681   89.6800   13.4466 C.3     1  UNL1        0.1217
     30 C          63.6420   90.6061   13.5668 C.ar    1  UNL1        0.0135
     31 C          64.4089   90.6817   14.8538 C.ar    1  UNL1       -0.0012
     32 C          65.5828   91.6077   14.9740 C.ar    1  UNL1       -0.0002
     33 C          65.9897   92.4581   13.8073 C.ar    1  UNL1        0.0016
     34 C          65.2228   92.3825   12.5204 C.ar    1  UNL1        0.0214
     35 C          65.3880   93.0941   11.2103 C.ar    1  UNL1        0.0719
     36 C          64.3161   92.6078   10.2804 C.ar    1  UNL1        0.0805
     37 N          63.4886   91.5958   11.0158 N.ar    1  UNL1       -0.3241
     38 C          62.3080   90.8533   10.4637 C.3     1  UNL1        0.1305
     39 C          64.0490   91.4565   12.4002 C.ar    1  UNL1        0.0577
     40 C          66.4402   94.1131   10.8869 C.2     1  UNL1        0.2473
     41 O          67.8096   93.6692   10.4652 O.2     1  UNL1       -0.2701
     42 N          66.1231   95.5759   10.9853 N.am    1  UNL1       -0.3008
     43 H          65.2243   95.8671   11.2621 H       1  UNL1        0.1497
     44 C          67.1752   96.5948   10.6620 C.3     1  UNL1        0.0911
     45 C          67.6023   96.8067    9.2397 C.3     1  UNL1        0.0386
     46 C          66.8857   96.0990    8.1282 C.3     1  UNL1        0.0739
     47 N          65.5554   96.6033    7.6527 N.3     1  UNL1       -0.2703
     48 C          65.3276   96.8560    6.1919 C.3     1  UNL1        0.0897
     49 C          64.4528   96.8548    8.6382 C.3     1  UNL1        0.0897
     50 C          58.6512   89.3048    7.0014 C.3     1  UNL1        0.1177
     51 C          59.1400   90.2533    5.9471 C.ar    1  UNL1       -0.0025
     52 C          58.1684   91.1430    5.2300 C.ar    1  UNL1       -0.0026
     53 C          58.6571   92.0914    4.1757 C.ar    1  UNL1       -0.0003
     54 C          60.1175   92.1502    3.8385 C.ar    1  UNL1       -0.0000
     55 C          61.0892   91.2604    4.5557 C.ar    1  UNL1       -0.0003
     56 C          60.6005   90.3120    5.6099 C.ar    1  UNL1       -0.0026
@<TRIPOS>BOND
     1    18    19    2
     2    19    17    1
     3    17     1    1
     4     1     2    1
     5     2     3    1
     6     3     4    2
     7     3     5   am
     8     5     6    1
     9     6    20    1
    10    20    21    1
    11    21    22   ar
    12    22    23   ar
    13    23    24   ar
    14    24    25    1
    15    24    26   ar
    16    26    27   ar
    17     6     7    1
    18     7     8    2
    19     7     9   am
    20     9    29    1
    21    29    30    1
    22    30    31   ar
    23    31    32   ar
    24    32    33   ar
    25    33    34   ar
    26    34    35   ar
    27    35    40    1
    28    40    41    2
    29    40    42   am
    30    42    44    1
    31    44    45    1
    32    45    46    1
    33    46    47    1
    34    47    48    1
    35    47    49    1
    36    35    36   ar
    37    36    37   ar
    38    37    38    1
    39    37    39   ar
    40     9    10    1
    41    11    10    1
    42    11    12    1
    43    12    13   am
    44    13    14    2
    45    13    15   am
    46    15    50    1
    47    50    51    1
    48    51    52   ar
    49    52    53   ar
    50    53    54   ar
    51    54    55   ar
    52    55    56   ar
    53    12     1    1
    54    56    51   ar
    55    11     5    1
    56    27    21   ar
    57    39    30   ar
    58    39    34   ar
    59    25    28    1
    60    42    43    1
    61    15    16    1
@<TRIPOS>MOLECULE
*****
 56 61 0 0 0
SMALL
GASTEIGER

@<TRIPOS>ATOM
      1 N          62.3268   84.2528    9.5858 N.3     1  UNL1       -0.1862
      2 C          61.5502   84.2869    8.3030 C.3     1  UNL1        0.1775
      3 C          60.8715   85.5527    7.8705 C.2     1  UNL1        0.2452
      4 O          60.0948   85.5868    6.5877 O.2     1  UNL1       -0.2732
      5 N          60.9695   86.7845    8.7208 N.am    1  UNL1       -0.2541
      6 C          60.2909   88.0504    8.2883 C.3     1  UNL1        0.1577
      7 C          60.3889   89.2822    9.1386 C.2     1  UNL1        0.2445
      8 O          59.7103   90.5480    8.7062 O.2     1  UNL1       -0.2731
      9 N          61.1656   89.2481   10.4215 N.am    1  UNL1       -0.2705
     10 C          61.8442   87.9823   10.8540 C.3     1  UNL1        0.1359
     11 C          61.7462   86.7505   10.0036 C.3     1  UNL1        0.1908
     12 N          62.4248   85.4846   10.4361 N.am    1  UNL1       -0.1863
     13 C          63.2015   85.4506   11.7190 C.2     1  UNL1        0.3191
     14 O          63.2996   86.6824   12.5693 O.2     1  UNL1       -0.2512
     15 N          63.8802   84.1847   12.1515 N.am    1  UNL1       -0.2836
     16 H          63.8158   83.3762   11.5934 H       1  UNL1        0.1513
     17 C          63.0055   82.9870   10.0183 C.3     1  UNL1        0.1188
     18 C          63.0956   80.9294   11.6021 C.2     1  UNL1       -0.0034
     19 C          62.3353   82.0755   11.0032 C.2     1  UNL1       -0.0071
     20 C          59.5142   88.0845    7.0056 C.3     1  UNL1        0.0556
     21 C          59.4571   89.3464    6.1967 C.ar    1  UNL1       -0.0198
     22 C          60.7111   89.9106    5.5975 C.ar    1  UNL1       -0.0011
     23 C          60.6539   91.1725    4.7886 C.ar    1  UNL1        0.0363
     24 C          59.3427   91.8702    4.5789 C.ar    1  UNL1        0.1337
     25 O          59.2856   93.1322    3.7701 O.3     1  UNL1       -0.5055
     26 C          58.0886   91.3060    5.1781 C.ar    1  UNL1        0.0363
     27 C          58.1458   90.0441    5.9870 C.ar    1  UNL1       -0.0011
     28 H          60.0689   93.4846    3.3958 H       1  UNL1        0.2922
     29 C          61.2636   90.4799   11.2718 C.3     1  UNL1        0.1217
     30 C          62.6043   91.0888   11.5584 C.ar    1  UNL1        0.0135
     31 C          63.2941   91.9108   10.5103 C.ar    1  UNL1       -0.0012
     32 C          64.6347   92.5196   10.7968 C.ar    1  UNL1       -0.0002
     33 C          65.2854   92.3064   12.1313 C.ar    1  UNL1        0.0016
     34 C          64.5956   91.4844   13.1794 C.ar    1  UNL1        0.0214
     35 C          64.9884   91.1041   14.5762 C.ar    1  UNL1        0.0719
     36 C          63.8906   90.2602   15.1529 C.ar    1  UNL1        0.0805
     37 N          62.8193   90.1190   14.1126 N.ar    1  UNL1       -0.3241
     38 C          61.5374   89.3553   14.2652 C.3     1  UNL1        0.1305
     39 C          63.2550   90.8756   12.8929 C.ar    1  UNL1        0.0577
     40 C          66.2565   91.4984   15.2738 C.2     1  UNL1        0.2473
     41 O          67.3798   90.5126   15.4020 O.2     1  UNL1       -0.2701
     42 N          66.4013   92.8786   15.8431 N.am    1  UNL1       -0.3008
     43 H          65.6640   93.5256   15.7590 H       1  UNL1        0.1497
     44 C          67.6693   93.2730   16.5407 C.3     1  UNL1        0.0911
     45 C          68.8750   93.6660   15.7396 C.3     1  UNL1        0.0386
     46 C          69.3688   92.7729   14.6404 C.3     1  UNL1        0.0739
     47 N          68.5729   92.6277   13.3773 N.3     1  UNL1       -0.2703
     48 C          67.5031   93.6255   13.0461 C.3     1  UNL1        0.0897
     49 C          68.8467   91.4846   12.4455 C.3     1  UNL1        0.0897
     50 C          64.6569   84.1506   13.4342 C.3     1  UNL1        0.1177
     51 C          64.0987   84.7989   14.6664 C.ar    1  UNL1       -0.0025
     52 C          64.6385   86.1197   15.1290 C.ar    1  UNL1       -0.0026
     53 C          64.0804   86.7680   16.3612 C.ar    1  UNL1       -0.0003
     54 C          62.9824   86.0955   17.1307 C.ar    1  UNL1       -0.0000
     55 C          62.4426   84.7747   16.6681 C.ar    1  UNL1       -0.0003
     56 C          63.0007   84.1264   15.4359 C.ar    1  UNL1       -0.0026
@<TRIPOS>BOND
     1    18    19    2
     2    19    17    1
     3    17     1    1
     4     1     2    1
     5     2     3    1
     6     3     4    2
     7     3     5   am
     8     5     6    1
     9     6    20    1
    10    20    21    1
    11    21    22   ar
    12    22    23   ar
    13    23    24   ar
    14    24    25    1
    15    24    26   ar
    16    26    27   ar
    17     6     7    1
    18     7     8    2
    19     7     9   am
    20     9    29    1
    21    29    30    1
    22    30    31   ar
    23    31    32   ar
    24    32    33   ar
    25    33    34   ar
    26    34    35   ar
    27    35    40    1
    28    40    41    2
    29    40    42   am
    30    42    44    1
    31    44    45    1
    32    45    46    1
    33    46    47    1
    34    47    48    1
    35    47    49    1
    36    35    36   ar
    37    36    37   ar
    38    37    38    1
    39    37    39   ar
    40     9    10    1
    41    11    10    1
    42    11    12    1
    43    12    13   am
    44    13    14    2
    45    13    15   am
    46    15    50    1
    47    50    51    1
    48    51    52   ar
    49    52    53   ar
    50    53    54   ar
    51    54    55   ar
    52    55    56   ar
    53    12     1    1
    54    56    51   ar
    55    11     5    1
    56    27    21   ar
    57    39    30   ar
    58    39    34   ar
    59    25    28    1
    60    42    43    1
    61    15    16    1
@<TRIPOS>MOLECULE
*****
 56 61 0 0 0
SMALL
GASTEIGER

@<TRIPOS>ATOM
      1 N          62.1724   95.1454   -3.4388 N.3     1  UNL1       -0.1862
      2 C          61.1296   94.7199   -4.4295 C.3     1  UNL1        0.1775
      3 C          59.8346   94.1340   -3.9503 C.2     1  UNL1        0.2452
      4 O          58.7918   93.7085   -4.9411 O.2     1  UNL1       -0.2732
      5 N          59.5824   93.9735   -2.4804 N.am    1  UNL1       -0.2541
      6 C          58.2874   93.3876   -2.0012 C.3     1  UNL1        0.1577
      7 C          58.0352   93.2271   -0.5313 C.2     1  UNL1        0.2445
      8 O          56.7402   92.6411   -0.0521 O.2     1  UNL1       -0.2731
      9 N          59.0780   93.6526    0.4594 N.am    1  UNL1       -0.2705
     10 C          60.3730   94.2385   -0.0198 C.3     1  UNL1        0.1359
     11 C          60.6252   94.3990   -1.4897 C.3     1  UNL1        0.1908
     12 N          61.9202   94.9849   -1.9689 N.am    1  UNL1       -0.1863
     13 C          62.9630   95.4104   -0.9781 C.2     1  UNL1        0.3191
     14 O          62.7108   95.2500    0.4917 O.2     1  UNL1       -0.2512
     15 N          64.2580   95.9964   -1.4573 N.am    1  UNL1       -0.2836
     16 H          64.4236   96.1017   -2.4221 H       1  UNL1        0.1513
     17 C          63.4674   95.7314   -3.9180 C.3     1  UNL1        0.1188
     18 C          64.8688   95.4547   -6.0881 C.2     1  UNL1       -0.0034
     19 C          64.3893   94.9141   -4.7736 C.2     1  UNL1       -0.0071
     20 C          57.2446   92.9621   -2.9919 C.3     1  UNL1        0.0556
     21 C          56.1560   93.9140   -3.3904 C.ar    1  UNL1       -0.0198
     22 C          55.4585   94.7350   -2.3468 C.ar    1  UNL1       -0.0011
     23 C          54.3699   95.6869   -2.7453 C.ar    1  UNL1        0.0363
     24 C          53.9788   95.8177   -4.1875 C.ar    1  UNL1        0.1337
     25 O          52.8902   96.7696   -4.5861 O.3     1  UNL1       -0.5055
     26 C          54.6764   94.9966   -5.2312 C.ar    1  UNL1        0.0363
     27 C          55.7650   94.0448   -4.8327 C.ar    1  UNL1       -0.0011
     28 H          52.4545   97.2825   -3.9341 H       1  UNL1        0.2922
     29 C          58.8258   93.4921    1.9293 C.3     1  UNL1        0.1217
     30 C          59.7526   92.6573    2.7626 C.ar    1  UNL1        0.0135
     31 C          61.2159   92.6086    2.4363 C.ar    1  UNL1       -0.0012
     32 C          62.1427   91.7739    3.2695 C.ar    1  UNL1       -0.0002
     33 C          61.6062   90.9879    4.4290 C.ar    1  UNL1        0.0016
     34 C          60.1429   91.0367    4.7553 C.ar    1  UNL1        0.0214
     35 C          59.3312   90.3740    5.8286 C.ar    1  UNL1        0.0719
     36 C          57.9028   90.7991    5.6587 C.ar    1  UNL1        0.0805
     37 N          57.8317   91.7245    4.4804 N.ar    1  UNL1       -0.3241
     38 C          56.5935   92.3869    3.9530 C.3     1  UNL1        0.1305
     39 C          59.2161   91.8714    3.9221 C.ar    1  UNL1        0.0577
     40 C          59.8559   89.4485    6.8861 C.2     1  UNL1        0.2473
     41 O          59.8377   87.9656    6.6613 O.2     1  UNL1       -0.2701
     42 N          60.3988   90.0060    8.1685 N.am    1  UNL1       -0.3008
     43 H          60.4108   90.9793    8.3160 H       1  UNL1        0.1497
     44 C          60.9235   89.0807    9.2260 C.3     1  UNL1        0.0911
     45 C          60.2009   88.9500   10.5340 C.3     1  UNL1        0.0386
     46 C          60.8883   89.3303   11.8118 C.3     1  UNL1        0.0739
     47 N          62.3240   88.9554   12.0315 N.3     1  UNL1       -0.2703
     48 C          63.3197   90.0027   12.4333 C.3     1  UNL1        0.0897
     49 C          62.7640   87.5330   11.8493 C.3     1  UNL1        0.0897
     50 C          65.3008   96.4219   -0.4667 C.3     1  UNL1        0.1177
     51 C          65.2653   95.8892    0.9351 C.ar    1  UNL1       -0.0025
     52 C          65.3556   96.8320    2.0982 C.ar    1  UNL1       -0.0026
     53 C          65.3200   96.2993    3.5000 C.ar    1  UNL1       -0.0003
     54 C          65.1942   94.8238    3.7387 C.ar    1  UNL1       -0.0000
     55 C          65.1039   93.8809    2.5755 C.ar    1  UNL1       -0.0003
     56 C          65.1394   94.4136    1.1737 C.ar    1  UNL1       -0.0026
@<TRIPOS>BOND
     1    18    19    2
     2    19    17    1
     3    17     1    1
     4     1     2    1
     5     2     3    1
     6     3     4    2
     7     3     5   am
     8     5     6    1
     9     6    20    1
    10    20    21    1
    11    21    22   ar
    12    22    23   ar
    13    23    24   ar
    14    24    25    1
    15    24    26   ar
    16    26    27   ar
    17     6     7    1
    18     7     8    2
    19     7     9   am
    20     9    29    1
    21    29    30    1
    22    30    31   ar
    23    31    32   ar
    24    32    33   ar
    25    33    34   ar
    26    34    35   ar
    27    35    40    1
    28    40    41    2
    29    40    42   am
    30    42    44    1
    31    44    45    1
    32    45    46    1
    33    46    47    1
    34    47    48    1
    35    47    49    1
    36    35    36   ar
    37    36    37   ar
    38    37    38    1
    39    37    39   ar
    40     9    10    1
    41    11    10    1
    42    11    12    1
    43    12    13   am
    44    13    14    2
    45    13    15   am
    46    15    50    1
    47    50    51    1
    48    51    52   ar
    49    52    53   ar
    50    53    54   ar
    51    54    55   ar
    52    55    56   ar
    53    12     1    1
    54    56    51   ar
    55    11     5    1
    56    27    21   ar
    57    39    30   ar
    58    39    34   ar
    59    25    28    1
    60    42    43    1
    61    15    16    1
