@<TRIPOS>MOLECULE
*****
 66 73 0 0 0
SMALL
GASTEIGER

@<TRIPOS>ATOM
      1 N          64.4090   96.6689   -4.7920 N.3     1  UNL1       -0.1862
      2 C          63.7379   96.6156   -6.1324 C.3     1  UNL1        0.1775
      3 C          62.2416   96.5569   -6.2202 C.2     1  UNL1        0.2452
      4 O          61.5705   96.5036   -7.5607 O.2     1  UNL1       -0.2732
      5 N          61.4165   96.5516   -4.9676 N.am    1  UNL1       -0.2541
      6 C          59.9202   96.4930   -5.0555 C.3     1  UNL1        0.1577
      7 C          59.0950   96.4877   -3.8029 C.2     1  UNL1        0.2445
      8 O          57.5987   96.4291   -3.8907 O.2     1  UNL1       -0.2731
      9 N          59.7661   96.5411   -2.4624 N.am    1  UNL1       -0.2705
     10 C          61.2624   96.5997   -2.3746 C.3     1  UNL1        0.1359
     11 C          62.0876   96.6050   -3.6272 C.3     1  UNL1        0.1908
     12 N          63.5839   96.6636   -3.5394 N.am    1  UNL1       -0.1863
     13 C          64.2550   96.7169   -2.1989 C.2     1  UNL1        0.3191
     14 O          63.4298   96.7116   -0.9463 O.2     1  UNL1       -0.2512
     15 N          65.7513   96.7755   -2.1111 N.am    1  UNL1       -0.2836
     16 H          66.2928   96.7790   -2.9333 H       1  UNL1        0.1513
     17 C          65.9053   96.7275   -4.7042 C.3     1  UNL1        0.1188
     18 C          67.9465   96.8228   -6.3087 C.2     1  UNL1       -0.0034
     19 C          66.7447   96.0995   -5.7770 C.2     1  UNL1       -0.0071
     20 C          59.2491   96.4397   -6.3958 C.3     1  UNL1        0.0556
     21 C          58.2132   95.3914   -6.6748 C.ar    1  UNL1       -0.0198
     22 C          56.8848   95.7840   -7.2503 C.ar    1  UNL1       -0.0011
     23 C          55.8489   94.7356   -7.5293 C.ar    1  UNL1        0.0363
     24 C          56.1413   93.2947   -7.2327 C.ar    1  UNL1        0.1337
     25 O          55.1054   92.2463   -7.5116 O.3     1  UNL1       -0.5055
     26 C          57.4697   92.9020   -6.6571 C.ar    1  UNL1        0.0363
     27 C          58.5056   93.9503   -6.3781 C.ar    1  UNL1       -0.0011
     28 H          54.2756   92.4916   -7.8711 H       1  UNL1        0.2922
     29 C          58.9410   96.5358   -1.2098 C.3     1  UNL1        0.1217
     30 C          59.5321   96.0375    0.0757 C.ar    1  UNL1        0.0135
     31 C          60.5641   96.8558    0.7935 C.ar    1  UNL1       -0.0012
     32 C          61.1552   96.3575    2.0789 C.ar    1  UNL1       -0.0002
     33 C          60.7143   95.0410    2.6465 C.ar    1  UNL1        0.0015
     34 C          59.6823   94.2227    1.9287 C.ar    1  UNL1        0.0170
     35 C          59.0561   92.8965    2.2434 C.ar    1  UNL1        0.0186
     36 C          58.0780   92.5751    1.1526 C.ar    1  UNL1        0.0759
     37 N          58.0997   93.7026    0.1636 N.ar    1  UNL1       -0.3242
     38 C          57.2747   93.7956   -1.0857 C.3     1  UNL1        0.1305
     39 C          59.0911   94.7209    0.6433 C.ar    1  UNL1        0.0575
     40 C          59.3555   92.0417    3.4392 C.ar    1  UNL1        0.0015
     41 C          60.7663   91.6202    3.7256 C.ar    1  UNL1        0.0002
     42 C          61.0657   90.7655    4.9213 C.ar    1  UNL1        0.0045
     43 C          59.9542   90.3322    5.8307 C.ar    1  UNL1        0.0537
     44 C          58.5434   90.7536    5.5443 C.ar    1  UNL1        0.0045
     45 C          58.2441   91.6083    4.3486 C.ar    1  UNL1        0.0002
     46 C          60.2537   89.4774    7.0264 C.2     1  UNL1        0.2495
     47 O          60.3189   87.9856    6.8844 O.2     1  UNL1       -0.2698
     48 N          60.4879   90.1145    8.3641 N.am    1  UNL1       -0.2803
     49 H          60.4450   91.0936    8.4573 H       1  UNL1        0.1552
     50 C          60.7873   89.2596    9.5597 C.ar    1  UNL1        0.0536
     51 C          59.8751   88.1237    9.9168 C.ar    1  UNL1        0.0149
     52 C          60.1744   87.2688   11.1124 C.ar    1  UNL1        0.0044
     53 C          61.3859   87.5499   11.9510 C.ar    1  UNL1        0.0370
     54 C          62.2981   88.6859   11.5939 C.ar    1  UNL1        0.1396
     55 C          61.9988   89.5407   10.3983 C.ar    1  UNL1        0.0516
     56 O          63.5096   88.9670   12.4325 O.3     1  UNL1       -0.4791
     57 C          63.8746   90.3815   12.7727 C.3     1  UNL1        0.1661
     58 C          64.0320   91.3987   11.6815 C.3     1  UNL1        0.0472
     59 C          64.0821   90.7790   14.2041 C.3     1  UNL1        0.0472
     60 C          66.4224   96.8288   -0.7707 C.3     1  UNL1        0.1177
     61 C          65.8205   96.1074    0.3986 C.ar    1  UNL1       -0.0025
     62 C          65.4260   94.6661    0.2685 C.ar    1  UNL1       -0.0026
     63 C          64.8241   93.9448    1.4378 C.ar    1  UNL1       -0.0003
     64 C          64.6168   94.6646    2.7373 C.ar    1  UNL1       -0.0000
     65 C          65.0113   96.1060    2.8675 C.ar    1  UNL1       -0.0003
     66 C          65.6132   96.8274    1.6982 C.ar    1  UNL1       -0.0026
@<TRIPOS>BOND
     1    18    19    2
     2    19    17    1
     3    17     1    1
     4     1     2    1
     5     2     3    1
     6     3     4    2
     7     3     5   am
     8     5     6    1
     9     6    20    1
    10    20    21    1
    11    21    22   ar
    12    22    23   ar
    13    23    24   ar
    14    24    25    1
    15    24    26   ar
    16    26    27   ar
    17     6     7    1
    18     7     8    2
    19     7     9   am
    20     9    29    1
    21    29    30    1
    22    30    31   ar
    23    31    32   ar
    24    32    33   ar
    25    33    34   ar
    26    34    35   ar
    27    35    40    1
    28    40    41   ar
    29    41    42   ar
    30    42    43   ar
    31    43    46    1
    32    46    47    2
    33    46    48   am
    34    48    50    1
    35    50    51   ar
    36    51    52   ar
    37    52    53   ar
    38    53    54   ar
    39    54    56    1
    40    56    57    1
    41    57    58    1
    42    57    59    1
    43    54    55   ar
    44    43    44   ar
    45    44    45   ar
    46    35    36   ar
    47    36    37   ar
    48    37    38    1
    49    37    39   ar
    50     9    10    1
    51    11    10    1
    52    11    12    1
    53    12    13   am
    54    13    14    2
    55    13    15   am
    56    15    60    1
    57    60    61    1
    58    61    62   ar
    59    62    63   ar
    60    63    64   ar
    61    64    65   ar
    62    65    66   ar
    63    12     1    1
    64    66    61   ar
    65    11     5    1
    66    27    21   ar
    67    39    30   ar
    68    39    34   ar
    69    45    40   ar
    70    55    50   ar
    71    25    28    1
    72    48    49    1
    73    15    16    1
@<TRIPOS>MOLECULE
*****
 66 73 0 0 0
SMALL
GASTEIGER

@<TRIPOS>ATOM
      1 N          62.3342   94.9608   -3.2855 N.3     1  UNL1       -0.1862
      2 C          61.2083   94.9182   -4.2757 C.3     1  UNL1        0.1775
      3 C          59.8145   94.6114   -3.8139 C.2     1  UNL1        0.2452
      4 O          58.6886   94.5688   -4.8042 O.2     1  UNL1       -0.2732
      5 N          59.5467   94.3472   -2.3619 N.am    1  UNL1       -0.2541
      6 C          58.1529   94.0403   -1.9000 C.3     1  UNL1        0.1577
      7 C          57.8850   93.7761   -0.4480 C.2     1  UNL1        0.2445
      8 O          56.4913   93.4693    0.0138 O.2     1  UNL1       -0.2731
      9 N          59.0109   93.8187    0.5422 N.am    1  UNL1       -0.2705
     10 C          60.4047   94.1255    0.0804 C.3     1  UNL1        0.1359
     11 C          60.6725   94.3898   -1.3717 C.3     1  UNL1        0.1908
     12 N          62.0663   94.6966   -1.8335 N.am    1  UNL1       -0.1863
     13 C          63.1922   94.7392   -0.8432 C.2     1  UNL1        0.3191
     14 O          62.9244   94.4750    0.6088 O.2     1  UNL1       -0.2512
     15 N          64.5860   95.0460   -1.3051 N.am    1  UNL1       -0.2836
     16 H          64.7618   95.2194   -2.2581 H       1  UNL1        0.1513
     17 C          63.7280   95.2676   -3.7474 C.3     1  UNL1        0.1188
     18 C          64.2505   92.7730   -4.2511 C.2     1  UNL1       -0.0034
     19 C          64.5182   94.2298   -4.4879 C.2     1  UNL1       -0.0071
     20 C          57.0270   93.9977   -2.8902 C.3     1  UNL1        0.0556
     21 C          56.3984   92.6856   -3.2552 C.ar    1  UNL1       -0.0198
     22 C          55.9970   91.7212   -2.1788 C.ar    1  UNL1       -0.0011
     23 C          55.3684   90.4090   -2.5437 C.ar    1  UNL1        0.0363
     24 C          55.1412   90.0614   -3.9850 C.ar    1  UNL1        0.1337
     25 O          54.5126   88.7492   -4.3500 O.3     1  UNL1       -0.5055
     26 C          55.5426   91.0258   -5.0615 C.ar    1  UNL1        0.0363
     27 C          56.1712   92.3379   -4.6966 C.ar    1  UNL1       -0.0011
     28 H          54.2618   88.1468   -3.6776 H       1  UNL1        0.2922
     29 C          58.7431   93.5545    1.9943 C.3     1  UNL1        0.1217
     30 C          59.6886   92.7029    2.7885 C.ar    1  UNL1        0.0135
     31 C          61.1451   92.6662    2.4317 C.ar    1  UNL1       -0.0012
     32 C          62.0906   91.8147    3.2259 C.ar    1  UNL1       -0.0002
     33 C          61.5796   90.9998    4.3770 C.ar    1  UNL1        0.0015
     34 C          60.1231   91.0365    4.7338 C.ar    1  UNL1        0.0170
     35 C          59.3350   90.3461    5.8072 C.ar    1  UNL1        0.0186
     36 C          57.9024   90.7710    5.6763 C.ar    1  UNL1        0.0759
     37 N          57.8052   91.7239    4.5221 N.ar    1  UNL1       -0.3242
     38 C          56.5549   92.3950    4.0358 C.3     1  UNL1        0.1305
     39 C          59.1776   91.8881    3.9396 C.ar    1  UNL1        0.0575
     40 C          59.8833   89.3973    6.8316 C.ar    1  UNL1        0.0015
     41 C          59.7913   87.9170    6.6080 C.ar    1  UNL1        0.0002
     42 C          60.3395   86.9683    7.6324 C.ar    1  UNL1        0.0045
     43 C          60.9798   87.5000    8.8804 C.ar    1  UNL1        0.0537
     44 C          61.0718   88.9804    9.1039 C.ar    1  UNL1        0.0045
     45 C          60.5236   89.9290    8.0795 C.ar    1  UNL1        0.0002
     46 C          61.5280   86.5513    9.9047 C.2     1  UNL1        0.2495
     47 O          61.0462   86.6191   11.3236 O.2     1  UNL1       -0.2698
     48 N          62.5581   85.5347    9.5103 N.am    1  UNL1       -0.2803
     49 H          62.8744   85.4901    8.5790 H       1  UNL1        0.1552
     50 C          63.1063   84.5860   10.5347 C.ar    1  UNL1        0.0536
     51 C          63.8815   83.3779   10.0992 C.ar    1  UNL1        0.0149
     52 C          64.4297   82.4292   11.1236 C.ar    1  UNL1        0.0044
     53 C          64.2027   82.6885   12.5834 C.ar    1  UNL1        0.0370
     54 C          63.4275   83.8966   13.0189 C.ar    1  UNL1        0.1396
     55 C          62.8793   84.8453   11.9946 C.ar    1  UNL1        0.0516
     56 O          63.2005   84.1559   14.4788 O.3     1  UNL1       -0.4791
     57 C          63.8712   85.3193   15.1471 C.3     1  UNL1        0.1661
     58 C          65.1653   85.8510   14.6061 C.3     1  UNL1        0.0472
     59 C          63.2478   85.9510   16.3563 C.3     1  UNL1        0.0472
     60 C          65.7119   95.0886   -0.3149 C.3     1  UNL1        0.1177
     61 C          65.4209   95.2820    1.1439 C.ar    1  UNL1       -0.0025
     62 C          65.5130   96.6500    1.7521 C.ar    1  UNL1       -0.0026
     63 C          65.2220   96.8433    3.2109 C.ar    1  UNL1       -0.0003
     64 C          64.8388   95.6687    4.0613 C.ar    1  UNL1       -0.0000
     65 C          64.7466   94.3006    3.4531 C.ar    1  UNL1       -0.0003
     66 C          65.0377   94.1072    1.9943 C.ar    1  UNL1       -0.0026
@<TRIPOS>BOND
     1    18    19    2
     2    19    17    1
     3    17     1    1
     4     1     2    1
     5     2     3    1
     6     3     4    2
     7     3     5   am
     8     5     6    1
     9     6    20    1
    10    20    21    1
    11    21    22   ar
    12    22    23   ar
    13    23    24   ar
    14    24    25    1
    15    24    26   ar
    16    26    27   ar
    17     6     7    1
    18     7     8    2
    19     7     9   am
    20     9    29    1
    21    29    30    1
    22    30    31   ar
    23    31    32   ar
    24    32    33   ar
    25    33    34   ar
    26    34    35   ar
    27    35    40    1
    28    40    41   ar
    29    41    42   ar
    30    42    43   ar
    31    43    46    1
    32    46    47    2
    33    46    48   am
    34    48    50    1
    35    50    51   ar
    36    51    52   ar
    37    52    53   ar
    38    53    54   ar
    39    54    56    1
    40    56    57    1
    41    57    58    1
    42    57    59    1
    43    54    55   ar
    44    43    44   ar
    45    44    45   ar
    46    35    36   ar
    47    36    37   ar
    48    37    38    1
    49    37    39   ar
    50     9    10    1
    51    11    10    1
    52    11    12    1
    53    12    13   am
    54    13    14    2
    55    13    15   am
    56    15    60    1
    57    60    61    1
    58    61    62   ar
    59    62    63   ar
    60    63    64   ar
    61    64    65   ar
    62    65    66   ar
    63    12     1    1
    64    66    61   ar
    65    11     5    1
    66    27    21   ar
    67    39    30   ar
    68    39    34   ar
    69    45    40   ar
    70    55    50   ar
    71    25    28    1
    72    48    49    1
    73    15    16    1
@<TRIPOS>MOLECULE
*****
 66 73 0 0 0
SMALL
GASTEIGER

@<TRIPOS>ATOM
      1 N          64.9353   96.4608   -4.4068 N.3     1  UNL1       -0.1862
      2 C          64.4009   96.3354   -5.8028 C.3     1  UNL1        0.1775
      3 C          62.9207   96.2675   -6.0360 C.2     1  UNL1        0.2452
      4 O          62.3864   96.1421   -7.4320 O.2     1  UNL1       -0.2732
      5 N          61.9749   96.3249   -4.8733 N.am    1  UNL1       -0.2541
      6 C          60.4947   96.2570   -5.1065 C.3     1  UNL1        0.1577
      7 C          59.5488   96.3144   -3.9438 C.2     1  UNL1        0.2445
      8 O          58.0686   96.2465   -4.1770 O.2     1  UNL1       -0.2731
      9 N          60.0831   96.4398   -2.5477 N.am    1  UNL1       -0.2705
     10 C          61.5633   96.5077   -2.3145 C.3     1  UNL1        0.1359
     11 C          62.5092   96.4503   -3.4773 C.3     1  UNL1        0.1908
     12 N          63.9894   96.5182   -3.2441 N.am    1  UNL1       -0.1863
     13 C          64.5237   96.6436   -1.8480 C.2     1  UNL1        0.3191
     14 O          63.5778   96.7010   -0.6853 O.2     1  UNL1       -0.2512
     15 N          66.0039   96.7115   -1.6148 N.am    1  UNL1       -0.2836
     16 H          66.6247   96.6738   -2.3780 H       1  UNL1        0.1513
     17 C          66.4155   96.5287   -4.1736 C.3     1  UNL1        0.1188
     18 C          67.0209   95.4393   -6.4532 C.2     1  UNL1       -0.0034
     19 C          67.3642   96.3648   -5.3237 C.2     1  UNL1       -0.0071
     20 C          59.9603   96.1317   -6.5025 C.3     1  UNL1        0.0556
     21 C          58.6486   95.4455   -6.7447 C.ar    1  UNL1       -0.0198
     22 C          58.5046   93.9802   -6.4587 C.ar    1  UNL1       -0.0011
     23 C          57.1929   93.2941   -6.7009 C.ar    1  UNL1        0.0363
     24 C          56.0252   94.0733   -7.2291 C.ar    1  UNL1        0.1337
     25 O          54.7135   93.3872   -7.4713 O.3     1  UNL1       -0.5055
     26 C          56.1691   95.5388   -7.5151 C.ar    1  UNL1        0.0363
     27 C          57.4808   96.2249   -7.2729 C.ar    1  UNL1       -0.0011
     28 H          54.6235   92.4718   -7.2926 H       1  UNL1        0.2922
     29 C          59.1372   96.4972   -1.3850 C.3     1  UNL1        0.1217
     30 C          59.5750   96.0058   -0.0370 C.ar    1  UNL1        0.0135
     31 C          60.4743   96.8524    0.8141 C.ar    1  UNL1       -0.0012
     32 C          60.9121   96.3610    2.1620 C.ar    1  UNL1       -0.0002
     33 C          60.4505   95.0231    2.6588 C.ar    1  UNL1        0.0015
     34 C          59.5511   94.1765    1.8076 C.ar    1  UNL1        0.0170
     35 C          58.9390   92.8251    2.0295 C.ar    1  UNL1        0.0186
     36 C          58.1231   92.4814    0.8188 C.ar    1  UNL1        0.0759
     37 N          58.2308   93.6202   -0.1514 N.ar    1  UNL1       -0.3242
     38 C          57.5716   93.6978   -1.4966 C.3     1  UNL1        0.1305
     39 C          59.1133   94.6679    0.4597 C.ar    1  UNL1        0.0575
     40 C          59.1126   91.9680    3.2483 C.ar    1  UNL1        0.0015
     41 C          60.4645   91.4156    3.5904 C.ar    1  UNL1        0.0002
     42 C          60.6380   90.5585    4.8091 C.ar    1  UNL1        0.0045
     43 C          59.4596   90.2539    5.6858 C.ar    1  UNL1        0.0537
     44 C          58.1076   90.8063    5.3437 C.ar    1  UNL1        0.0045
     45 C          57.9342   91.6634    4.1250 C.ar    1  UNL1        0.0002
     46 C          59.6331   89.3968    6.9045 C.2     1  UNL1        0.2495
     47 O          59.1285   87.9842    6.9060 O.2     1  UNL1       -0.2698
     48 N          60.3112   89.9523    8.1218 N.am    1  UNL1       -0.2803
     49 H          60.6424   90.8794    8.1208 H       1  UNL1        0.1552
     50 C          60.4847   89.0951    9.3404 C.ar    1  UNL1        0.0536
     51 C          60.2749   89.6809   10.7053 C.ar    1  UNL1        0.0149
     52 C          60.4484   88.8238   11.9240 C.ar    1  UNL1        0.0044
     53 C          60.8316   87.3810   11.7779 C.ar    1  UNL1        0.0370
     54 C          61.0413   86.7952   10.4130 C.ar    1  UNL1        0.1396
     55 C          60.8679   87.6523    9.1942 C.ar    1  UNL1        0.0516
     56 O          61.4245   85.3524   10.2668 O.3     1  UNL1       -0.4791
     57 C          62.7951   84.9860    9.7800 C.3     1  UNL1        0.1661
     58 C          63.2154   85.3416    8.3847 C.3     1  UNL1        0.0472
     59 C          63.7455   84.2638   10.6885 C.3     1  UNL1        0.0472
     60 C          66.5382   96.8368   -0.2188 C.3     1  UNL1        0.1177
     61 C          65.8563   96.1253    0.9120 C.ar    1  UNL1       -0.0025
     62 C          65.7318   96.7907    2.2505 C.ar    1  UNL1       -0.0026
     63 C          65.0499   96.0792    3.3813 C.ar    1  UNL1       -0.0003
     64 C          64.4925   94.7022    3.1736 C.ar    1  UNL1       -0.0000
     65 C          64.6170   94.0367    1.8350 C.ar    1  UNL1       -0.0003
     66 C          65.2989   94.7482    0.7042 C.ar    1  UNL1       -0.0026
@<TRIPOS>BOND
     1    18    19    2
     2    19    17    1
     3    17     1    1
     4     1     2    1
     5     2     3    1
     6     3     4    2
     7     3     5   am
     8     5     6    1
     9     6    20    1
    10    20    21    1
    11    21    22   ar
    12    22    23   ar
    13    23    24   ar
    14    24    25    1
    15    24    26   ar
    16    26    27   ar
    17     6     7    1
    18     7     8    2
    19     7     9   am
    20     9    29    1
    21    29    30    1
    22    30    31   ar
    23    31    32   ar
    24    32    33   ar
    25    33    34   ar
    26    34    35   ar
    27    35    40    1
    28    40    41   ar
    29    41    42   ar
    30    42    43   ar
    31    43    46    1
    32    46    47    2
    33    46    48   am
    34    48    50    1
    35    50    51   ar
    36    51    52   ar
    37    52    53   ar
    38    53    54   ar
    39    54    56    1
    40    56    57    1
    41    57    58    1
    42    57    59    1
    43    54    55   ar
    44    43    44   ar
    45    44    45   ar
    46    35    36   ar
    47    36    37   ar
    48    37    38    1
    49    37    39   ar
    50     9    10    1
    51    11    10    1
    52    11    12    1
    53    12    13   am
    54    13    14    2
    55    13    15   am
    56    15    60    1
    57    60    61    1
    58    61    62   ar
    59    62    63   ar
    60    63    64   ar
    61    64    65   ar
    62    65    66   ar
    63    12     1    1
    64    66    61   ar
    65    11     5    1
    66    27    21   ar
    67    39    30   ar
    68    39    34   ar
    69    45    40   ar
    70    55    50   ar
    71    25    28    1
    72    48    49    1
    73    15    16    1
@<TRIPOS>MOLECULE
*****
 66 73 0 0 0
SMALL
GASTEIGER

@<TRIPOS>ATOM
      1 N          62.0159   95.4400   -3.3034 N.3     1  UNL1       -0.1862
      2 C          61.0161   94.9856   -4.3251 C.3     1  UNL1        0.1775
      3 C          59.7527   94.3055   -3.8875 C.2     1  UNL1        0.2452
      4 O          58.7529   93.8511   -4.9093 O.2     1  UNL1       -0.2732
      5 N          59.4892   94.0798   -2.4282 N.am    1  UNL1       -0.2541
      6 C          58.2259   93.3998   -1.9906 C.3     1  UNL1        0.1577
      7 C          57.9623   93.1741   -0.5314 C.2     1  UNL1        0.2445
      8 O          56.6990   92.4940   -0.0937 O.2     1  UNL1       -0.2731
      9 N          58.9622   93.6285    0.4904 N.am    1  UNL1       -0.2705
     10 C          60.2255   94.3086    0.0528 C.3     1  UNL1        0.1359
     11 C          60.4890   94.5342   -1.4066 C.3     1  UNL1        0.1908
     12 N          61.7523   95.2143   -1.8442 N.am    1  UNL1       -0.1863
     13 C          62.7522   95.6687   -0.8224 C.2     1  UNL1        0.3191
     14 O          62.4886   95.4430    0.6369 O.2     1  UNL1       -0.2512
     15 N          64.0155   96.3488   -1.2600 N.am    1  UNL1       -0.2836
     16 H          64.1884   96.4969   -2.2178 H       1  UNL1        0.1513
     17 C          63.2792   96.1201   -3.7411 C.3     1  UNL1        0.1188
     18 C          64.9728   94.2281   -4.2905 C.2     1  UNL1       -0.0034
     19 C          64.1985   95.4414   -4.7128 C.2     1  UNL1       -0.0071
     20 C          57.2261   92.9454   -3.0123 C.3     1  UNL1        0.0556
     21 C          56.1129   93.8596   -3.4307 C.ar    1  UNL1       -0.0198
     22 C          55.8108   94.0560   -4.8867 C.ar    1  UNL1       -0.0011
     23 C          54.6976   94.9702   -5.3051 C.ar    1  UNL1        0.0363
     24 C          53.8864   95.6879   -4.2674 C.ar    1  UNL1        0.1337
     25 O          52.7732   96.6021   -4.6857 O.3     1  UNL1       -0.5055
     26 C          54.1885   95.4915   -2.8112 C.ar    1  UNL1        0.0363
     27 C          55.3017   94.5773   -2.3929 C.ar    1  UNL1       -0.0011
     28 H          52.5845   96.7248   -5.5953 H       1  UNL1        0.2922
     29 C          58.6986   93.4028    1.9497 C.3     1  UNL1        0.1217
     30 C          59.7063   92.6759    2.7902 C.ar    1  UNL1        0.0135
     31 C          61.1690   92.7995    2.4819 C.ar    1  UNL1       -0.0012
     32 C          62.1766   92.0726    3.3224 C.ar    1  UNL1       -0.0002
     33 C          61.7215   91.2222    4.4711 C.ar    1  UNL1        0.0015
     34 C          60.2587   91.0986    4.7793 C.ar    1  UNL1        0.0170
     35 C          59.5170   90.3392    5.8391 C.ar    1  UNL1        0.0186
     36 C          58.0509   90.5967    5.6536 C.ar    1  UNL1        0.0759
     37 N          57.8866   91.5152    4.4793 N.ar    1  UNL1       -0.3242
     38 C          56.5862   92.0328    3.9399 C.3     1  UNL1        0.1305
     39 C          59.2511   91.8255    3.9389 C.ar    1  UNL1        0.0575
     40 C          60.1331   89.4741    6.8984 C.ar    1  UNL1        0.0015
     41 C          61.0727   90.0727    7.9028 C.ar    1  UNL1        0.0002
     42 C          61.6888   89.2076    8.9620 C.ar    1  UNL1        0.0045
     43 C          61.3654   87.7439    9.0168 C.ar    1  UNL1        0.0537
     44 C          60.4258   87.1453    8.0124 C.ar    1  UNL1        0.0045
     45 C          59.8097   88.0104    6.9532 C.ar    1  UNL1        0.0002
     46 C          61.9815   86.8788   10.0761 C.2     1  UNL1        0.2495
     47 O          62.6034   85.5656    9.7039 O.2     1  UNL1       -0.2698
     48 N          61.9757   87.3270   11.5076 N.am    1  UNL1       -0.2803
     49 H          61.5676   88.1889   11.7520 H       1  UNL1        0.1552
     50 C          62.5919   86.4619   12.5668 C.ar    1  UNL1        0.0536
     51 C          63.6848   87.0066   13.4379 C.ar    1  UNL1        0.0149
     52 C          64.3010   86.1415   14.4971 C.ar    1  UNL1        0.0044
     53 C          63.8243   84.7318   14.6852 C.ar    1  UNL1        0.0370
     54 C          62.7315   84.1871   13.8141 C.ar    1  UNL1        0.1396
     55 C          62.1152   85.0521   12.7549 C.ar    1  UNL1        0.0516
     56 O          62.2548   82.7773   14.0021 O.3     1  UNL1       -0.4791
     57 C          62.6216   81.7218   13.0015 C.3     1  UNL1        0.1661
     58 C          62.7333   82.0730   11.5475 C.3     1  UNL1        0.0472
     59 C          62.8767   80.3149   13.4550 C.3     1  UNL1        0.0472
     60 C          65.0153   96.8032   -0.2383 C.3     1  UNL1        0.1177
     61 C          65.1205   96.0899    1.0770 C.ar    1  UNL1       -0.0025
     62 C          64.9632   96.8530    2.3588 C.ar    1  UNL1       -0.0026
     63 C          65.0685   96.1397    3.6741 C.ar    1  UNL1       -0.0003
     64 C          65.3311   94.6633    3.7077 C.ar    1  UNL1       -0.0000
     65 C          65.4884   93.9001    2.4260 C.ar    1  UNL1       -0.0003
     66 C          65.3831   94.6134    1.1106 C.ar    1  UNL1       -0.0026
@<TRIPOS>BOND
     1    18    19    2
     2    19    17    1
     3    17     1    1
     4     1     2    1
     5     2     3    1
     6     3     4    2
     7     3     5   am
     8     5     6    1
     9     6    20    1
    10    20    21    1
    11    21    22   ar
    12    22    23   ar
    13    23    24   ar
    14    24    25    1
    15    24    26   ar
    16    26    27   ar
    17     6     7    1
    18     7     8    2
    19     7     9   am
    20     9    29    1
    21    29    30    1
    22    30    31   ar
    23    31    32   ar
    24    32    33   ar
    25    33    34   ar
    26    34    35   ar
    27    35    40    1
    28    40    41   ar
    29    41    42   ar
    30    42    43   ar
    31    43    46    1
    32    46    47    2
    33    46    48   am
    34    48    50    1
    35    50    51   ar
    36    51    52   ar
    37    52    53   ar
    38    53    54   ar
    39    54    56    1
    40    56    57    1
    41    57    58    1
    42    57    59    1
    43    54    55   ar
    44    43    44   ar
    45    44    45   ar
    46    35    36   ar
    47    36    37   ar
    48    37    38    1
    49    37    39   ar
    50     9    10    1
    51    11    10    1
    52    11    12    1
    53    12    13   am
    54    13    14    2
    55    13    15   am
    56    15    60    1
    57    60    61    1
    58    61    62   ar
    59    62    63   ar
    60    63    64   ar
    61    64    65   ar
    62    65    66   ar
    63    12     1    1
    64    66    61   ar
    65    11     5    1
    66    27    21   ar
    67    39    30   ar
    68    39    34   ar
    69    45    40   ar
    70    55    50   ar
    71    25    28    1
    72    48    49    1
    73    15    16    1
