@<TRIPOS>MOLECULE
*****
 34 36 0 0 0
SMALL
GASTEIGER

@<TRIPOS>ATOM
      1 C          65.4595   92.4321   13.1529 C.ar    1  UNL1        0.0696
      2 C          66.2375   91.6891   14.1982 C.ar    1  UNL1        0.0057
      3 C          65.8112   90.3120   14.6128 C.ar    1  UNL1       -0.0041
      4 C          64.6069   89.6780   13.9822 C.ar    1  UNL1       -0.0185
      5 C          63.8289   90.4210   12.9370 C.ar    1  UNL1        0.0677
      6 C          64.2552   91.7981   12.5223 C.ar    1  UNL1        0.0095
      7 C          64.1806   88.3009   14.3968 C.3     1  UNL1        0.0257
      8 C          64.1650   87.1865   13.3929 C.3     1  UNL1        0.0259
      9 C          63.7387   85.8094   13.8076 C.3     1  UNL1        0.0940
     10 N          63.3281   85.5467   15.2261 N.am    1  UNL1       -0.2761
     11 C          62.9018   84.1696   15.6408 C.2     1  UNL1        0.2490
     12 O          62.4912   83.9069   17.0593 O.2     1  UNL1       -0.2699
     13 C          63.3437   86.6611   16.2300 C.3     1  UNL1        0.0940
     14 C          63.7700   88.0382   15.8154 C.3     1  UNL1        0.0259
     15 C          62.8862   83.0552   14.6369 C.ar    1  UNL1        0.0536
     16 C          64.0712   82.8330   13.7445 C.ar    1  UNL1        0.0045
     17 C          64.0556   81.7186   12.7406 C.ar    1  UNL1        0.0001
     18 C          62.8549   80.8264   12.6290 C.ar    1  UNL1        0.0000
     19 C          61.6699   81.0487   13.5213 C.ar    1  UNL1        0.0001
     20 C          61.6855   82.1631   14.5253 C.ar    1  UNL1        0.0045
     21 N          65.6906   94.2598   11.3210 N.am    1  UNL1       -0.1708
     22 C          65.8858   93.8092   12.7383 C.2     1  UNL1        0.3078
     23 O          66.5072   94.7357   13.7409 O.2     1  UNL1       -0.2516
     24 H          65.2827   93.6517   10.6629 H       1  UNL1        0.2545
     25 N          65.6365   96.8334   11.6729 N.pl3   1  UNL1       -0.1313
     26 C          66.1168   95.6369   10.9063 C.2     1  UNL1        0.3751
     27 N          67.0236   95.8175    9.7250 N.pl3   1  UNL1       -0.2906
     28 H          65.9163   97.7372   11.4008 H       1  UNL1        0.3060
     29 H          67.3033   96.7213    9.4529 H       1  UNL1        0.2545
     30 H          67.3388   95.0322    9.2219 H       1  UNL1        0.2545
     31 C          62.6246   89.7870   12.3063 C.3     1  UNL1        0.4183
     32 F          61.4203   89.1530   11.6757 F       1  UNL1       -0.1659
     33 F          63.4123   89.5356   11.0548 F       1  UNL1       -0.1659
     34 F          61.8370   90.0384   13.5578 F       1  UNL1       -0.1659
@<TRIPOS>BOND
     1    25    26    2
     2    26    27    1
     3    26    21    1
     4    21    22   am
     5    22    23    2
     6    22     1    1
     7     1     2   ar
     8     2     3   ar
     9     3     4   ar
    10     4     7    1
    11     7     8    1
    12     8     9    1
    13     9    10    1
    14    10    11   am
    15    11    12    2
    16    11    15    1
    17    15    16   ar
    18    16    17   ar
    19    17    18   ar
    20    18    19   ar
    21    19    20   ar
    22    10    13    1
    23    13    14    1
    24     4     5   ar
    25     5    31    1
    26    31    32    1
    27    31    33    1
    28    31    34    1
    29     5     6   ar
    30     6     1   ar
    31    14     7    1
    32    20    15   ar
    33    25    28    1
    34    27    29    1
    35    27    30    1
    36    21    24    1
@<TRIPOS>MOLECULE
*****
 34 36 0 0 0
SMALL
GASTEIGER

@<TRIPOS>ATOM
      1 C          63.1525   86.2575   13.6750 C.ar    1  UNL1        0.0696
      2 C          64.2347   86.8387   14.5358 C.ar    1  UNL1        0.0057
      3 C          64.7228   88.2350   14.2863 C.ar    1  UNL1       -0.0041
      4 C          64.1288   89.0500   13.1760 C.ar    1  UNL1       -0.0185
      5 C          63.0466   88.4688   12.3152 C.ar    1  UNL1        0.0677
      6 C          62.5584   87.0726   12.5647 C.ar    1  UNL1        0.0095
      7 C          64.6169   90.4462   12.9266 C.3     1  UNL1        0.0257
      8 C          64.6341   90.9967   11.5313 C.3     1  UNL1        0.0259
      9 C          65.1223   92.3929   11.2819 C.3     1  UNL1        0.0940
     10 N          65.5932   93.2387   12.4276 N.am    1  UNL1       -0.2761
     11 C          66.0814   94.6349   12.1781 C.2     1  UNL1        0.2490
     12 O          66.5523   95.4807   13.3239 O.2     1  UNL1       -0.2699
     13 C          65.5760   92.6883   13.8228 C.3     1  UNL1        0.0940
     14 C          65.0879   91.2920   14.0723 C.3     1  UNL1        0.0259
     15 C          66.0986   95.1854   10.7829 C.ar    1  UNL1        0.0536
     16 C          67.0406   94.6162    9.7637 C.ar    1  UNL1        0.0045
     17 C          67.0578   95.1667    8.3684 C.ar    1  UNL1        0.0001
     18 C          66.1331   96.2862    7.9924 C.ar    1  UNL1        0.0000
     19 C          65.1911   96.8553    9.0115 C.ar    1  UNL1        0.0001
     20 C          65.1738   96.3049   10.4068 C.ar    1  UNL1        0.0045
     21 N          63.2053   83.7215   13.1132 N.am    1  UNL1       -0.1708
     22 C          62.6643   84.8613   13.9245 C.2     1  UNL1        0.3078
     23 O          61.6352   84.6049   14.9852 O.2     1  UNL1       -0.2516
     24 H          63.8807   83.8898   12.4171 H       1  UNL1        0.2545
     25 N          62.3637   81.8918   14.7545 N.pl3   1  UNL1       -0.1313
     26 C          62.7171   82.3253   13.3627 C.2     1  UNL1        0.3751
     27 N          62.5824   81.3625   12.2203 N.pl3   1  UNL1       -0.2906
     28 H          62.0433   80.9754   14.9182 H       1  UNL1        0.3060
     29 H          62.2620   80.4461   12.3840 H       1  UNL1        0.2545
     30 H          62.8144   81.6470   11.3068 H       1  UNL1        0.2545
     31 C          62.4525   89.2839   11.2049 C.3     1  UNL1        0.4183
     32 F          61.8584   90.0989   10.0946 F       1  UNL1       -0.1659
     33 F          61.7720   90.1615   12.2132 F       1  UNL1       -0.1659
     34 F          63.1329   88.4062   10.1966 F       1  UNL1       -0.1659
@<TRIPOS>BOND
     1    25    26    2
     2    26    27    1
     3    26    21    1
     4    21    22   am
     5    22    23    2
     6    22     1    1
     7     1     2   ar
     8     2     3   ar
     9     3     4   ar
    10     4     7    1
    11     7     8    1
    12     8     9    1
    13     9    10    1
    14    10    11   am
    15    11    12    2
    16    11    15    1
    17    15    16   ar
    18    16    17   ar
    19    17    18   ar
    20    18    19   ar
    21    19    20   ar
    22    10    13    1
    23    13    14    1
    24     4     5   ar
    25     5    31    1
    26    31    32    1
    27    31    33    1
    28    31    34    1
    29     5     6   ar
    30     6     1   ar
    31    14     7    1
    32    20    15   ar
    33    25    28    1
    34    27    29    1
    35    27    30    1
    36    21    24    1
@<TRIPOS>MOLECULE
*****
 34 36 0 0 0
SMALL
GASTEIGER

@<TRIPOS>ATOM
      1 C          62.9777   81.7672   11.7629 C.ar    1  UNL1        0.0696
      2 C          63.0905   82.6810   10.5787 C.ar    1  UNL1        0.0057
      3 C          63.1757   84.1647   10.7817 C.ar    1  UNL1       -0.0041
      4 C          63.1482   84.7348   12.1688 C.ar    1  UNL1       -0.0185
      5 C          63.0354   83.8210   13.3530 C.ar    1  UNL1        0.0677
      6 C          62.9502   82.3373   13.1501 C.ar    1  UNL1        0.0095
      7 C          63.2334   86.2185   12.3718 C.3     1  UNL1        0.0257
      8 C          64.0643   86.7762   13.4892 C.3     1  UNL1        0.0259
      9 C          64.1495   88.2599   13.6921 C.3     1  UNL1        0.0940
     10 N          63.4039   89.1860   12.7777 N.am    1  UNL1       -0.2761
     11 C          63.4891   90.6698   12.9806 C.2     1  UNL1        0.2490
     12 O          62.7435   91.5959   12.0662 O.2     1  UNL1       -0.2699
     13 C          62.5730   88.6284   11.6603 C.3     1  UNL1        0.0940
     14 C          62.4878   87.1446   11.4573 C.3     1  UNL1        0.0259
     15 C          64.3200   91.2274   14.0981 C.ar    1  UNL1        0.0536
     16 C          63.7503   91.3193   15.4827 C.ar    1  UNL1        0.0045
     17 C          64.5811   91.8769   16.6001 C.ar    1  UNL1        0.0001
     18 C          65.9817   92.3427   16.3330 C.ar    1  UNL1        0.0000
     19 C          66.5514   92.2509   14.9484 C.ar    1  UNL1        0.0001
     20 C          65.7206   91.6933   13.8309 C.ar    1  UNL1        0.0045
     21 N          63.2229   79.6892   10.2230 N.am    1  UNL1       -0.1708
     22 C          62.8925   80.2835   11.5599 C.2     1  UNL1        0.3078
     23 O          62.4769   79.3940   12.6940 O.2     1  UNL1       -0.2516
     24 H          63.4957   80.2729    9.4786 H       1  UNL1        0.2545
     25 N          64.1936   77.4952    9.2260 N.pl3   1  UNL1       -0.1313
     26 C          63.1377   78.2054   10.0200 C.2     1  UNL1        0.3751
     27 N          61.9964   77.4319   10.6111 N.pl3   1  UNL1       -0.2906
     28 H          64.1376   76.5213    9.0928 H       1  UNL1        0.3060
     29 H          61.9405   76.4581   10.4779 H       1  UNL1        0.2545
     30 H          61.3034   77.8981   11.1323 H       1  UNL1        0.2545
     31 C          63.0079   84.3911   14.7403 C.3     1  UNL1        0.4183
     32 F          62.9805   84.9611   16.1274 F       1  UNL1       -0.1659
     33 F          61.5264   84.5964   14.6266 F       1  UNL1       -0.1659
     34 F          64.4894   84.1858   14.8539 F       1  UNL1       -0.1659
@<TRIPOS>BOND
     1    25    26    2
     2    26    27    1
     3    26    21    1
     4    21    22   am
     5    22    23    2
     6    22     1    1
     7     1     2   ar
     8     2     3   ar
     9     3     4   ar
    10     4     7    1
    11     7     8    1
    12     8     9    1
    13     9    10    1
    14    10    11   am
    15    11    12    2
    16    11    15    1
    17    15    16   ar
    18    16    17   ar
    19    17    18   ar
    20    18    19   ar
    21    19    20   ar
    22    10    13    1
    23    13    14    1
    24     4     5   ar
    25     5    31    1
    26    31    32    1
    27    31    33    1
    28    31    34    1
    29     5     6   ar
    30     6     1   ar
    31    14     7    1
    32    20    15   ar
    33    25    28    1
    34    27    29    1
    35    27    30    1
    36    21    24    1
