@<TRIPOS>MOLECULE
*****
 41 45 0 0 0
SMALL
GASTEIGER

@<TRIPOS>ATOM
      1 C          59.7651   89.6362    6.9313 C.ar    1  UNL1        0.0528
      2 C          60.5447   90.0988    8.1265 C.ar    1  UNL1        0.0161
      3 C          61.1061   89.0955    9.0899 C.ar    1  UNL1        0.0181
      4 C          60.8881   87.6296    8.8581 C.ar    1  UNL1        0.0757
      5 C          60.1085   87.1670    7.6630 C.ar    1  UNL1        0.1545
      6 F          59.8905   85.7012    7.4313 F       1  UNL1       -0.2028
      7 C          59.5470   88.1704    6.6996 C.ar    1  UNL1        0.0456
      8 N          61.4496   86.6263    9.8215 N.pl3   1  UNL1       -0.3057
      9 C          61.0916   86.7015   11.2762 C.3     1  UNL1        0.0922
     10 C          61.6532   85.6982   12.2396 C.3     1  UNL1        0.0374
     11 C          62.5727   84.6197   11.7482 C.3     1  UNL1        0.0610
     12 C          62.9306   84.5445   10.2935 C.3     1  UNL1        0.0374
     13 C          62.3691   85.5478    9.3302 C.3     1  UNL1        0.0922
     14 N          63.1342   83.6164   12.7116 N.3     1  UNL1       -0.2715
     15 C          64.0788   82.5573   12.2259 C.3     1  UNL1        0.0896
     16 C          62.7510   83.6722   14.1608 C.3     1  UNL1        0.0896
     17 C          63.6961   84.2638   15.1642 C.3     1  UNL1        0.0897
     18 N          63.6278   85.7271   15.4870 N.3     1  UNL1       -0.2691
     19 C          62.9783   86.1850   16.7591 C.3     1  UNL1        0.0897
     20 C          62.9101   87.6483   17.0819 C.3     1  UNL1        0.0897
     21 N          63.4912   88.6536   16.1325 N.3     1  UNL1       -0.2691
     22 C          63.4229   90.1169   16.4552 C.3     1  UNL1        0.0897
     23 C          64.1407   88.1957   14.8603 C.3     1  UNL1        0.0897
     24 C          64.2090   86.7325   14.5375 C.3     1  UNL1        0.0897
     25 N          59.2036   90.6395    5.9680 N.pl3   1  UNL1       -0.2825
     26 H          58.2631   90.9209    6.0428 H       1  UNL1        0.1551
     27 C          62.6891   92.9377    1.6588 C.3     1  UNL1        0.0342
     28 C          61.8177   92.3631    2.7361 C.ar    1  UNL1        0.0152
     29 C          62.4015   91.4293    3.7545 C.ar    1  UNL1        0.0990
     30 N          61.5301   90.8548    4.8318 N.ar    1  UNL1       -0.2123
     31 C          60.0750   91.2141    4.8907 C.ar    1  UNL1        0.2207
     32 N          59.4912   92.1478    3.8723 N.ar    1  UNL1       -0.2138
     33 C          60.3626   92.7224    2.7950 C.ar    1  UNL1        0.0847
     34 C          59.7788   93.6562    1.7765 C.ar    1  UNL1        0.0571
     35 C          60.0168   95.1351    1.6974 C.ar    1  UNL1        0.1231
     36 N          59.2396   95.6679    0.5304 N.ar    1  UNL1       -0.1677
     37 N          58.5212   94.5184   -0.1118 N.ar    1  UNL1       -0.2513
     38 C          58.8544   93.2751    0.6583 C.ar    1  UNL1        0.0980
     39 C          57.6266   94.5981   -1.3132 C.3     1  UNL1        0.1054
     40 C          56.5154   93.6058   -1.4880 C.3     1  UNL1        0.0263
     41 C          57.8432   95.6701   -2.3398 C.3     1  UNL1        0.0263
@<TRIPOS>BOND
     1    27    28    1
     2    28    29   ar
     3    29    30   ar
     4    30    31   ar
     5    31    25    1
     6    25     1    1
     7     1     2   ar
     8     2     3   ar
     9     3     4   ar
    10     4     8    1
    11     8     9    1
    12     9    10    1
    13    10    11    1
    14    11    14    1
    15    14    15    1
    16    14    16    1
    17    16    17    1
    18    17    18    1
    19    18    19    1
    20    19    20    1
    21    20    21    1
    22    21    22    1
    23    21    23    1
    24    23    24    1
    25    11    12    1
    26    12    13    1
    27     4     5   ar
    28     5     6    1
    29     5     7   ar
    30    31    32   ar
    31    32    33   ar
    32    33    34    1
    33    34    35   ar
    34    35    36   ar
    35    36    37   ar
    36    37    39    1
    37    39    40    1
    38    39    41    1
    39    37    38   ar
    40    33    28   ar
    41    38    34   ar
    42     7     1   ar
    43    13     8    1
    44    24    18    1
    45    25    26    1
@<TRIPOS>MOLECULE
*****
 41 45 0 0 0
SMALL
GASTEIGER

@<TRIPOS>ATOM
      1 C          59.5582   90.9282    5.0624 C.ar    1  UNL1        0.0528
      2 C          61.0396   90.6939    5.0340 C.ar    1  UNL1        0.0161
      3 C          61.8980   91.4383    4.0547 C.ar    1  UNL1        0.0181
      4 C          61.2751   92.4169    3.1038 C.ar    1  UNL1        0.0757
      5 C          59.7939   92.6513    3.1322 C.ar    1  UNL1        0.1545
      6 F          59.1710   93.6299    2.1812 F       1  UNL1       -0.2028
      7 C          58.9354   91.9069    4.1115 C.ar    1  UNL1        0.0456
      8 N          62.1337   93.1613    2.1245 N.pl3   1  UNL1       -0.3057
      9 C          61.6469   94.4482    1.5272 C.3     1  UNL1        0.0922
     10 C          62.5054   95.1925    0.5479 C.3     1  UNL1        0.0374
     11 C          63.8506   94.6498    0.1660 C.3     1  UNL1        0.0610
     12 C          64.3374   93.3629    0.7633 C.3     1  UNL1        0.0374
     13 C          63.4789   92.6186    1.7426 C.3     1  UNL1        0.0922
     14 N          64.7091   95.3942   -0.8133 N.3     1  UNL1       -0.2715
     15 C          65.7089   96.3987   -0.3222 C.3     1  UNL1        0.0896
     16 C          64.5678   95.1339   -2.2838 C.3     1  UNL1        0.0896
     17 C          63.5655   95.9063   -3.0892 C.3     1  UNL1        0.0897
     18 N          62.1195   95.5079   -3.0686 N.3     1  UNL1       -0.2691
     19 C          61.0512   96.5564   -3.1642 C.3     1  UNL1        0.0897
     20 C          59.6052   96.1580   -3.1436 C.3     1  UNL1        0.0897
     21 N          59.2275   94.7110   -3.0273 N.3     1  UNL1       -0.2691
     22 C          57.7816   94.3126   -3.0066 C.3     1  UNL1        0.0897
     23 C          60.2958   93.6625   -2.9316 C.3     1  UNL1        0.0897
     24 C          61.7418   94.0609   -2.9523 C.3     1  UNL1        0.0897
     25 N          58.6998   90.1839    6.0417 N.pl3   1  UNL1       -0.2825
     26 H          57.7252   90.3230    6.0471 H       1  UNL1        0.1551
     27 C          61.2057   86.3589    9.9263 C.3     1  UNL1        0.0342
     28 C          60.5793   87.3152    8.9551 C.ar    1  UNL1        0.0152
     29 C          59.9217   86.7969    7.7106 C.ar    1  UNL1        0.0990
     30 N          59.2952   87.7531    6.7394 N.ar    1  UNL1       -0.2123
     31 C          59.3263   89.2277    7.0128 C.ar    1  UNL1        0.2207
     32 N          59.9839   89.7459    8.2574 N.ar    1  UNL1       -0.2138
     33 C          60.6104   88.7897    9.2285 C.ar    1  UNL1        0.0847
     34 C          61.2680   89.3080   10.4731 C.ar    1  UNL1        0.0571
     35 C          60.6807   89.2909   11.8532 C.ar    1  UNL1        0.1231
     36 N          61.6781   89.9068   12.7891 N.ar    1  UNL1       -0.1677
     37 N          62.8819   90.3046   11.9874 N.ar    1  UNL1       -0.2513
     38 C          62.6284   89.9345   10.5560 C.ar    1  UNL1        0.0980
     39 C          64.1214   90.9577   12.5230 C.3     1  UNL1        0.1054
     40 C          64.6740   90.5402   13.8535 C.3     1  UNL1        0.0263
     41 C          64.8084   92.0282   11.7280 C.3     1  UNL1        0.0263
@<TRIPOS>BOND
     1    27    28    1
     2    28    29   ar
     3    29    30   ar
     4    30    31   ar
     5    31    25    1
     6    25     1    1
     7     1     2   ar
     8     2     3   ar
     9     3     4   ar
    10     4     8    1
    11     8     9    1
    12     9    10    1
    13    10    11    1
    14    11    14    1
    15    14    15    1
    16    14    16    1
    17    16    17    1
    18    17    18    1
    19    18    19    1
    20    19    20    1
    21    20    21    1
    22    21    22    1
    23    21    23    1
    24    23    24    1
    25    11    12    1
    26    12    13    1
    27     4     5   ar
    28     5     6    1
    29     5     7   ar
    30    31    32   ar
    31    32    33   ar
    32    33    34    1
    33    34    35   ar
    34    35    36   ar
    35    36    37   ar
    36    37    39    1
    37    39    40    1
    38    39    41    1
    39    37    38   ar
    40    33    28   ar
    41    38    34   ar
    42     7     1   ar
    43    13     8    1
    44    24    18    1
    45    25    26    1
@<TRIPOS>MOLECULE
*****
 41 45 0 0 0
SMALL
GASTEIGER

@<TRIPOS>ATOM
      1 C          59.0940   89.8715    6.1762 C.ar    1  UNL1        0.0528
      2 C          60.4680   90.1860    5.6631 C.ar    1  UNL1        0.0161
      3 C          60.6495   91.2154    4.5874 C.ar    1  UNL1        0.0181
      4 C          59.4570   91.9304    4.0247 C.ar    1  UNL1        0.0757
      5 C          58.0830   91.6160    4.5377 C.ar    1  UNL1        0.1545
      6 F          56.8905   92.3310    3.9749 F       1  UNL1       -0.2028
      7 C          57.9015   90.5865    5.6135 C.ar    1  UNL1        0.0456
      8 N          59.6385   92.9599    2.9489 N.pl3   1  UNL1       -0.3057
      9 C          60.1360   94.3310    3.2991 C.3     1  UNL1        0.0922
     10 C          60.3176   95.3604    2.2233 C.3     1  UNL1        0.0374
     11 C          60.0016   95.0187    0.7973 C.3     1  UNL1        0.0610
     12 C          59.5041   93.6477    0.4471 C.3     1  UNL1        0.0374
     13 C          59.3226   92.6183    1.5229 C.3     1  UNL1        0.0922
     14 N          60.1831   96.0482   -0.2785 N.3     1  UNL1       -0.2715
     15 C          61.5551   96.5605   -0.6025 C.3     1  UNL1        0.0896
     16 C          58.9926   96.5653   -1.0303 C.3     1  UNL1        0.0896
     17 C          58.6803   96.0340   -2.3978 C.3     1  UNL1        0.0897
     18 N          57.9591   94.7273   -2.5480 N.3     1  UNL1       -0.2691
     19 C          58.5545   93.6339   -3.3846 C.3     1  UNL1        0.0897
     20 C          57.8333   92.3273   -3.5349 C.3     1  UNL1        0.0897
     21 N          56.5167   92.1141   -2.8486 N.3     1  UNL1       -0.2691
     22 C          55.7955   90.8075   -2.9989 C.3     1  UNL1        0.0897
     23 C          55.9213   93.2075   -2.0120 C.3     1  UNL1        0.0897
     24 C          56.6425   94.5141   -1.8617 C.3     1  UNL1        0.0897
     25 N          58.9125   88.8421    7.2520 N.pl3   1  UNL1       -0.2825
     26 H          58.1376   88.2354    7.2270 H       1  UNL1        0.1551
     27 C          62.9093   88.4218   11.7072 C.3     1  UNL1        0.0342
     28 C          61.9101   88.5268   10.5934 C.ar    1  UNL1        0.0152
     29 C          61.2577   89.8437   10.2928 C.ar    1  UNL1        0.0990
     30 N          60.2585   89.9487    9.1790 N.ar    1  UNL1       -0.2123
     31 C          59.9117   88.7370    8.3658 C.ar    1  UNL1        0.2207
     32 N          60.5641   87.4202    8.6663 N.ar    1  UNL1       -0.2138
     33 C          61.5633   87.3151    9.7801 C.ar    1  UNL1        0.0847
     34 C          62.2156   85.9982   10.0807 C.ar    1  UNL1        0.0571
     35 C          63.0756   85.2056    9.1415 C.ar    1  UNL1        0.1231
     36 N          63.5140   83.9603    9.8536 N.ar    1  UNL1       -0.1677
     37 N          62.9249   83.9833   11.2330 N.ar    1  UNL1       -0.2513
     38 C          62.1225   85.2428   11.3733 C.ar    1  UNL1        0.0980
     39 C          63.1064   82.9315   12.2869 C.3     1  UNL1        0.1054
     40 C          62.9762   81.4807   11.9288 C.3     1  UNL1        0.0263
     41 C          63.4181   83.3305   13.6989 C.3     1  UNL1        0.0263
@<TRIPOS>BOND
     1    27    28    1
     2    28    29   ar
     3    29    30   ar
     4    30    31   ar
     5    31    25    1
     6    25     1    1
     7     1     2   ar
     8     2     3   ar
     9     3     4   ar
    10     4     8    1
    11     8     9    1
    12     9    10    1
    13    10    11    1
    14    11    14    1
    15    14    15    1
    16    14    16    1
    17    16    17    1
    18    17    18    1
    19    18    19    1
    20    19    20    1
    21    20    21    1
    22    21    22    1
    23    21    23    1
    24    23    24    1
    25    11    12    1
    26    12    13    1
    27     4     5   ar
    28     5     6    1
    29     5     7   ar
    30    31    32   ar
    31    32    33   ar
    32    33    34    1
    33    34    35   ar
    34    35    36   ar
    35    36    37   ar
    36    37    39    1
    37    39    40    1
    38    39    41    1
    39    37    38   ar
    40    33    28   ar
    41    38    34   ar
    42     7     1   ar
    43    13     8    1
    44    24    18    1
    45    25    26    1
@<TRIPOS>MOLECULE
*****
 41 45 0 0 0
SMALL
GASTEIGER

@<TRIPOS>ATOM
      1 C          59.0879   89.8770    6.1714 C.ar    1  UNL1        0.0528
      2 C          60.4654   90.1971    5.6714 C.ar    1  UNL1        0.0161
      3 C          60.6528   91.2269    4.5970 C.ar    1  UNL1        0.0181
      4 C          59.4627   91.9366    4.0225 C.ar    1  UNL1        0.0757
      5 C          58.0852   91.6164    4.5225 C.ar    1  UNL1        0.1545
      6 F          56.8951   92.3261    3.9480 F       1  UNL1       -0.2028
      7 C          57.8978   90.5866    5.5970 C.ar    1  UNL1        0.0456
      8 N          59.6501   92.9664    2.9481 N.pl3   1  UNL1       -0.3057
      9 C          60.1623   94.3318    3.2991 C.3     1  UNL1        0.0922
     10 C          60.3497   95.3616    2.2246 C.3     1  UNL1        0.0374
     11 C          60.0249   95.0259    0.7992 C.3     1  UNL1        0.0610
     12 C          59.5126   93.6605    0.4482 C.3     1  UNL1        0.0374
     13 C          59.3252   92.6308    1.5227 C.3     1  UNL1        0.0922
     14 N          60.2123   96.0557   -0.2753 N.3     1  UNL1       -0.2715
     15 C          59.0204   96.7494   -0.8654 C.3     1  UNL1        0.0896
     16 C          61.5916   96.3918   -0.7596 C.3     1  UNL1        0.0896
     17 C          62.6922   95.3785   -0.6513 C.3     1  UNL1        0.0897
     18 N          63.3183   94.8157   -1.8927 N.3     1  UNL1       -0.2691
     19 C          64.1052   95.7078   -2.8064 C.3     1  UNL1        0.0897
     20 C          64.7314   95.1450   -4.0479 C.3     1  UNL1        0.0897
     21 N          64.5707   93.6901   -4.3756 N.3     1  UNL1       -0.2691
     22 C          65.1968   93.1273   -5.6171 C.3     1  UNL1        0.0897
     23 C          63.7838   92.7980   -3.4619 C.3     1  UNL1        0.0897
     24 C          63.1576   93.3608   -2.2204 C.3     1  UNL1        0.0897
     25 N          58.9005   88.8472    7.2458 N.pl3   1  UNL1       -0.2825
     26 H          58.1250   88.2414    7.2172 H       1  UNL1        0.1551
     27 C          62.8778   88.4195   11.7178 C.3     1  UNL1        0.0342
     28 C          61.8835   88.5264   10.5998 C.ar    1  UNL1        0.0152
     29 C          61.1978   89.8325   10.3283 C.ar    1  UNL1        0.0990
     30 N          60.2035   89.9395    9.2103 N.ar    1  UNL1       -0.2123
     31 C          59.8948   88.7402    8.3638 C.ar    1  UNL1        0.2207
     32 N          60.5805   87.4341    8.6353 N.ar    1  UNL1       -0.2138
     33 C          61.5748   87.3272    9.7533 C.ar    1  UNL1        0.0847
     34 C          62.2605   86.0209   10.0248 C.ar    1  UNL1        0.0571
     35 C          63.0497   85.2169    9.0345 C.ar    1  UNL1        0.1231
     36 N          63.5543   83.9885    9.7320 N.ar    1  UNL1       -0.1677
     37 N          63.0770   84.0334   11.1534 N.ar    1  UNL1       -0.2513
     38 C          62.2774   85.2895   11.3343 C.ar    1  UNL1        0.0980
     39 C          63.3512   83.0030   12.2084 C.3     1  UNL1        0.1054
     40 C          64.3032   83.3093   13.3264 C.3     1  UNL1        0.0263
     41 C          62.6733   81.6664   12.1456 C.3     1  UNL1        0.0263
@<TRIPOS>BOND
     1    27    28    1
     2    28    29   ar
     3    29    30   ar
     4    30    31   ar
     5    31    25    1
     6    25     1    1
     7     1     2   ar
     8     2     3   ar
     9     3     4   ar
    10     4     8    1
    11     8     9    1
    12     9    10    1
    13    10    11    1
    14    11    14    1
    15    14    15    1
    16    14    16    1
    17    16    17    1
    18    17    18    1
    19    18    19    1
    20    19    20    1
    21    20    21    1
    22    21    22    1
    23    21    23    1
    24    23    24    1
    25    11    12    1
    26    12    13    1
    27     4     5   ar
    28     5     6    1
    29     5     7   ar
    30    31    32   ar
    31    32    33   ar
    32    33    34    1
    33    34    35   ar
    34    35    36   ar
    35    36    37   ar
    36    37    39    1
    37    39    40    1
    38    39    41    1
    39    37    38   ar
    40    33    28   ar
    41    38    34   ar
    42     7     1   ar
    43    13     8    1
    44    24    18    1
    45    25    26    1
@<TRIPOS>MOLECULE
*****
 41 45 0 0 0
SMALL
GASTEIGER

@<TRIPOS>ATOM
      1 C          59.3606   88.6512    7.3891 C.ar    1  UNL1        0.0528
      2 C          59.8658   89.6487    8.3891 C.ar    1  UNL1        0.0161
      3 C          60.6849   89.1892    9.5586 C.ar    1  UNL1        0.0181
      4 C          60.9988   87.7323    9.7283 C.ar    1  UNL1        0.0757
      5 C          60.4936   86.7348    8.7284 C.ar    1  UNL1        0.1545
      6 F          60.8075   85.2779    8.8981 F       1  UNL1       -0.2028
      7 C          59.6745   87.1943    7.5588 C.ar    1  UNL1        0.0456
      8 N          61.8179   87.2728   10.8980 N.pl3   1  UNL1       -0.3057
      9 C          62.6774   88.2512   11.6422 C.3     1  UNL1        0.0922
     10 C          63.4965   87.7917   12.8118 C.3     1  UNL1        0.0374
     11 C          63.4560   86.3538   13.2371 C.3     1  UNL1        0.0610
     12 C          62.5965   85.3755   12.4929 C.3     1  UNL1        0.0374
     13 C          61.7775   85.8349   11.3233 C.3     1  UNL1        0.0922
     14 N          64.2752   85.8944   14.4068 N.3     1  UNL1       -0.2715
     15 C          64.3921   86.7595   15.6266 C.3     1  UNL1        0.0896
     16 C          64.9773   84.5698   14.3566 C.3     1  UNL1        0.0896
     17 C          64.2066   83.3033   14.5839 C.3     1  UNL1        0.0897
     18 N          63.8545   82.4209   13.4232 N.3     1  UNL1       -0.2691
     19 C          63.0397   81.1810   13.6436 C.3     1  UNL1        0.0897
     20 C          62.6876   80.2986   12.4829 C.3     1  UNL1        0.0897
     21 N          63.1504   80.6561   11.1016 N.3     1  UNL1       -0.2691
     22 C          62.7983   79.7737    9.9408 C.3     1  UNL1        0.0897
     23 C          63.9652   81.8960   10.8811 C.3     1  UNL1        0.0897
     24 C          64.3173   82.7784   12.0419 C.3     1  UNL1        0.0897
     25 N          58.5415   89.1107    6.2195 N.pl3   1  UNL1       -0.2825
     26 H          57.7618   88.5852    5.9278 H       1  UNL1        0.1551
     27 C          60.0172   94.1514    3.3189 C.3     1  UNL1        0.0342
     28 C          59.6483   92.8912    4.0440 C.ar    1  UNL1        0.0152
     29 C          58.3421   92.8021    4.7760 C.ar    1  UNL1        0.0990
     30 N          57.9732   91.5419    5.5012 N.ar    1  UNL1       -0.2123
     31 C          58.9104   90.3709    5.4943 C.ar    1  UNL1        0.2207
     32 N          60.2166   90.4600    4.7624 N.ar    1  UNL1       -0.2138
     33 C          60.5856   91.7202    4.0372 C.ar    1  UNL1        0.0847
     34 C          61.8918   91.8093    3.3052 C.ar    1  UNL1        0.0571
     35 C          63.0860   90.9278    3.5220 C.ar    1  UNL1        0.1231
     36 N          64.1654   91.3692    2.5787 N.ar    1  UNL1       -0.1677
     37 N          63.6384   92.5236    1.7787 N.ar    1  UNL1       -0.2513
     38 C          62.2333   92.7955    2.2277 C.ar    1  UNL1        0.0980
     39 C          64.3854   93.2741    0.7164 C.3     1  UNL1        0.1054
     40 C          65.8445   93.5728    0.8944 C.3     1  UNL1        0.0263
     41 C          63.6732   93.7260   -0.5241 C.3     1  UNL1        0.0263
@<TRIPOS>BOND
     1    27    28    1
     2    28    29   ar
     3    29    30   ar
     4    30    31   ar
     5    31    25    1
     6    25     1    1
     7     1     2   ar
     8     2     3   ar
     9     3     4   ar
    10     4     8    1
    11     8     9    1
    12     9    10    1
    13    10    11    1
    14    11    14    1
    15    14    15    1
    16    14    16    1
    17    16    17    1
    18    17    18    1
    19    18    19    1
    20    19    20    1
    21    20    21    1
    22    21    22    1
    23    21    23    1
    24    23    24    1
    25    11    12    1
    26    12    13    1
    27     4     5   ar
    28     5     6    1
    29     5     7   ar
    30    31    32   ar
    31    32    33   ar
    32    33    34    1
    33    34    35   ar
    34    35    36   ar
    35    36    37   ar
    36    37    39    1
    37    39    40    1
    38    39    41    1
    39    37    38   ar
    40    33    28   ar
    41    38    34   ar
    42     7     1   ar
    43    13     8    1
    44    24    18    1
    45    25    26    1
@<TRIPOS>MOLECULE
*****
 41 45 0 0 0
SMALL
GASTEIGER

@<TRIPOS>ATOM
      1 C          59.8545   89.7922    7.0779 C.ar    1  UNL1        0.0528
      2 C          59.5826   88.3252    7.2331 C.ar    1  UNL1        0.0161
      3 C          60.1811   87.5690    8.3819 C.ar    1  UNL1        0.0181
      4 C          61.0516   88.2797    9.3755 C.ar    1  UNL1        0.0757
      5 C          61.3235   89.7466    9.2203 C.ar    1  UNL1        0.1545
      6 F          62.1939   90.4573   10.2140 F       1  UNL1       -0.2028
      7 C          60.7250   90.5029    8.0715 C.ar    1  UNL1        0.0456
      8 N          61.6501   87.5233   10.5244 N.pl3   1  UNL1       -0.3057
      9 C          61.4020   86.0506   10.6634 C.3     1  UNL1        0.0922
     10 C          62.0005   85.2943   11.8122 C.3     1  UNL1        0.0374
     11 C          62.8471   86.0108   12.8220 C.3     1  UNL1        0.0610
     12 C          63.0952   87.4836   12.6831 C.3     1  UNL1        0.0374
     13 C          62.4967   88.2399   11.5343 C.3     1  UNL1        0.0922
     14 N          63.4457   85.2545   13.9709 N.3     1  UNL1       -0.2715
     15 C          64.8075   85.6209   14.4819 C.3     1  UNL1        0.0896
     16 C          62.6823   84.1318   14.6087 C.3     1  UNL1        0.0896
     17 C          63.2547   82.7454   14.6171 C.3     1  UNL1        0.0897
     18 N          63.1541   81.8849   13.3926 N.3     1  UNL1       -0.2691
     19 C          63.6317   82.4050   12.0692 C.3     1  UNL1        0.0897
     20 C          63.5310   81.5445   10.8446 C.3     1  UNL1        0.0897
     21 N          62.9528   80.1640   10.9435 N.3     1  UNL1       -0.2691
     22 C          62.8522   79.3036    9.7189 C.3     1  UNL1        0.0897
     23 C          62.4752   79.6440   12.2669 C.3     1  UNL1        0.0897
     24 C          62.5759   80.5044   13.4914 C.3     1  UNL1        0.0897
     25 N          59.2560   90.5485    5.9291 N.pl3   1  UNL1       -0.2825
     26 H          58.2796   90.6586    5.8675 H       1  UNL1        0.1551
     27 C          62.8124   92.9025    1.7088 C.3     1  UNL1        0.0342
     28 C          61.9233   92.3140    2.7638 C.ar    1  UNL1        0.0152
     29 C          62.4716   91.3060    3.7299 C.ar    1  UNL1        0.0990
     30 N          61.5825   90.7175    4.7849 N.ar    1  UNL1       -0.2123
     31 C          60.1451   91.1370    4.8740 C.ar    1  UNL1        0.2207
     32 N          59.5968   92.1450    3.9080 N.ar    1  UNL1       -0.2138
     33 C          60.4859   92.7335    2.8529 C.ar    1  UNL1        0.0847
     34 C          59.9376   93.7416    1.8868 C.ar    1  UNL1        0.0571
     35 C          60.0846   95.2309    1.9884 C.ar    1  UNL1        0.1231
     36 N          59.3839   95.8470    0.8139 N.ar    1  UNL1       -0.1677
     37 N          58.8037   94.7385   -0.0135 N.ar    1  UNL1       -0.2513
     38 C          59.1459   93.4373    0.6496 C.ar    1  UNL1        0.0980
     39 C          58.0191   94.9024   -1.2814 C.3     1  UNL1        0.1054
     40 C          56.5284   95.0600   -1.2258 C.3     1  UNL1        0.0263
     41 C          58.7252   94.9087   -2.6048 C.3     1  UNL1        0.0263
@<TRIPOS>BOND
     1    27    28    1
     2    28    29   ar
     3    29    30   ar
     4    30    31   ar
     5    31    25    1
     6    25     1    1
     7     1     2   ar
     8     2     3   ar
     9     3     4   ar
    10     4     8    1
    11     8     9    1
    12     9    10    1
    13    10    11    1
    14    11    14    1
    15    14    15    1
    16    14    16    1
    17    16    17    1
    18    17    18    1
    19    18    19    1
    20    19    20    1
    21    20    21    1
    22    21    22    1
    23    21    23    1
    24    23    24    1
    25    11    12    1
    26    12    13    1
    27     4     5   ar
    28     5     6    1
    29     5     7   ar
    30    31    32   ar
    31    32    33   ar
    32    33    34    1
    33    34    35   ar
    34    35    36   ar
    35    36    37   ar
    36    37    39    1
    37    39    40    1
    38    39    41    1
    39    37    38   ar
    40    33    28   ar
    41    38    34   ar
    42     7     1   ar
    43    13     8    1
    44    24    18    1
    45    25    26    1
@<TRIPOS>MOLECULE
*****
 41 45 0 0 0
SMALL
GASTEIGER

@<TRIPOS>ATOM
      1 C          63.7014   89.6235   16.0057 C.ar    1  UNL1        0.0528
      2 C          64.1724   89.2169   14.6407 C.ar    1  UNL1        0.0161
      3 C          64.0848   87.7817   14.2137 C.ar    1  UNL1        0.0181
      4 C          63.5262   86.7529   15.1516 C.ar    1  UNL1        0.0757
      5 C          63.0552   87.1594   16.5165 C.ar    1  UNL1        0.1545
      6 F          62.4966   86.1306   17.4543 F       1  UNL1       -0.2028
      7 C          63.1428   88.5947   16.9435 C.ar    1  UNL1        0.0456
      8 N          63.4387   85.3176   14.7245 N.pl3   1  UNL1       -0.3057
      9 C          62.1795   84.5389   14.9655 C.3     1  UNL1        0.0922
     10 C          62.0920   83.1037   14.5385 C.3     1  UNL1        0.0374
     11 C          63.2636   82.4472   13.8704 C.3     1  UNL1        0.0610
     12 C          64.5228   83.2259   13.6294 C.3     1  UNL1        0.0374
     13 C          64.6103   84.6611   14.0565 C.3     1  UNL1        0.0922
     14 N          63.1761   81.0119   13.4434 N.3     1  UNL1       -0.2715
     15 C          63.3765   79.9167   14.4485 C.3     1  UNL1        0.0896
     16 C          62.8880   80.6718   12.0111 C.3     1  UNL1        0.0896
     17 C          63.6309   81.3696   10.9106 C.3     1  UNL1        0.0897
     18 N          63.2515   82.7667   10.5181 N.3     1  UNL1       -0.2691
     19 C          62.2960   83.5511   11.3677 C.3     1  UNL1        0.0897
     20 C          61.9166   84.9483   10.9752 C.3     1  UNL1        0.0897
     21 N          62.4927   85.5610    9.7332 N.3     1  UNL1       -0.2691
     22 C          62.1133   86.9582    9.3408 C.3     1  UNL1        0.0897
     23 C          63.4481   84.7767    8.8837 C.3     1  UNL1        0.0897
     24 C          63.8275   83.3795    9.2761 C.3     1  UNL1        0.0897
     25 N          63.7890   91.0587   16.4327 N.pl3   1  UNL1       -0.2825
     26 H          63.0613   91.4606   16.9602 H       1  UNL1        0.1551
     27 C          68.5738   94.3504   14.9258 C.3     1  UNL1        0.0342
     28 C          67.3776   93.5274   15.3025 C.ar    1  UNL1        0.0152
     29 C          67.1620   93.1283   16.7322 C.ar    1  UNL1        0.0990
     30 N          65.9658   92.3053   17.1090 N.ar    1  UNL1       -0.2123
     31 C          64.9852   91.8816   16.0560 C.ar    1  UNL1        0.2207
     32 N          65.2008   92.2808   14.6262 N.ar    1  UNL1       -0.2138
     33 C          66.3970   93.1037   14.2495 C.ar    1  UNL1        0.0847
     34 C          66.6126   93.5029   12.8197 C.ar    1  UNL1        0.0571
     35 C          67.2493   92.6594   11.7552 C.ar    1  UNL1        0.1231
     36 N          67.2595   93.4509   10.4811 N.ar    1  UNL1       -0.1677
     37 N          66.6291   94.7835   10.7581 N.ar    1  UNL1       -0.2513
     38 C          66.2293   94.8157   12.2035 C.ar    1  UNL1        0.0980
     39 C          66.4330   95.8898    9.7643 C.3     1  UNL1        0.1054
     40 C          67.3857   96.0439    8.6160 C.3     1  UNL1        0.0263
     41 C          65.2842   96.8419    9.9187 C.3     1  UNL1        0.0263
@<TRIPOS>BOND
     1    27    28    1
     2    28    29   ar
     3    29    30   ar
     4    30    31   ar
     5    31    25    1
     6    25     1    1
     7     1     2   ar
     8     2     3   ar
     9     3     4   ar
    10     4     8    1
    11     8     9    1
    12     9    10    1
    13    10    11    1
    14    11    14    1
    15    14    15    1
    16    14    16    1
    17    16    17    1
    18    17    18    1
    19    18    19    1
    20    19    20    1
    21    20    21    1
    22    21    22    1
    23    21    23    1
    24    23    24    1
    25    11    12    1
    26    12    13    1
    27     4     5   ar
    28     5     6    1
    29     5     7   ar
    30    31    32   ar
    31    32    33   ar
    32    33    34    1
    33    34    35   ar
    34    35    36   ar
    35    36    37   ar
    36    37    39    1
    37    39    40    1
    38    39    41    1
    39    37    38   ar
    40    33    28   ar
    41    38    34   ar
    42     7     1   ar
    43    13     8    1
    44    24    18    1
    45    25    26    1
@<TRIPOS>MOLECULE
*****
 41 45 0 0 0
SMALL
GASTEIGER

@<TRIPOS>ATOM
      1 C          62.5916   92.5688    1.8853 C.ar    1  UNL1        0.0528
      2 C          61.4780   92.2654    0.9273 C.ar    1  UNL1        0.0161
      3 C          61.5598   92.7414   -0.4928 C.ar    1  UNL1        0.0181
      4 C          62.7551   93.5209   -0.9549 C.ar    1  UNL1        0.0757
      5 C          63.8687   93.8243    0.0031 C.ar    1  UNL1        0.1545
      6 F          65.0641   94.6038   -0.4590 F       1  UNL1       -0.2028
      7 C          63.7870   93.3483    1.4232 C.ar    1  UNL1        0.0456
      8 N          62.8368   93.9969   -2.3751 N.pl3   1  UNL1       -0.3057
      9 C          63.2303   93.0435   -3.4642 C.3     1  UNL1        0.0922
     10 C          63.3120   93.5196   -4.8843 C.3     1  UNL1        0.0374
     11 C          63.0003   94.9490   -5.2152 C.3     1  UNL1        0.0610
     12 C          62.6068   95.9024   -4.1261 C.3     1  UNL1        0.0374
     13 C          62.5251   95.4263   -2.7061 C.3     1  UNL1        0.0922
     14 N          63.0820   95.4250   -6.6354 N.3     1  UNL1       -0.2715
     15 C          64.4176   95.7142   -7.2538 C.3     1  UNL1        0.0896
     16 C          61.8280   95.6119   -7.4371 C.3     1  UNL1        0.0896
     17 C          60.8426   94.4879   -7.5610 C.3     1  UNL1        0.0897
     18 N          59.5335   94.5543   -6.8317 N.3     1  UNL1       -0.2691
     19 C          59.3083   95.6094   -5.7895 C.3     1  UNL1        0.0897
     20 C          57.9992   95.6758   -5.0602 C.3     1  UNL1        0.0897
     21 N          56.9154   94.6871   -5.3730 N.3     1  UNL1       -0.2691
     22 C          55.6063   94.7535   -4.6436 C.3     1  UNL1        0.0897
     23 C          57.1406   93.6321   -6.4151 C.3     1  UNL1        0.0897
     24 C          58.4497   93.5657   -7.1444 C.3     1  UNL1        0.0897
     25 N          62.5099   92.0928    3.3054 N.pl3   1  UNL1       -0.2825
     26 H          63.3309   91.9950    3.8398 H       1  UNL1        0.1551
     27 C          57.1792   90.7847    5.7288 C.3     1  UNL1        0.0342
     28 C          58.5119   91.1117    5.1230 C.ar    1  UNL1        0.0152
     29 C          58.6024   92.1010    3.9991 C.ar    1  UNL1        0.0990
     30 N          59.9350   92.4280    3.3932 N.ar    1  UNL1       -0.2123
     31 C          61.1772   91.7658    3.9113 C.ar    1  UNL1        0.2207
     32 N          61.0867   90.7765    5.0351 N.ar    1  UNL1       -0.2138
     33 C          59.7541   90.4495    5.6410 C.ar    1  UNL1        0.0847
     34 C          59.6636   89.4602    6.7649 C.ar    1  UNL1        0.0571
     35 C          59.0500   88.0935    6.6894 C.ar    1  UNL1        0.1231
     36 N          59.1781   87.4526    8.0394 N.ar    1  UNL1       -0.1677
     37 N          59.8709   88.4231    8.9495 N.ar    1  UNL1       -0.2513
     38 C          60.1710   89.6639    8.1618 C.ar    1  UNL1        0.0980
     39 C          60.2050   88.1933   10.3936 C.3     1  UNL1        0.1054
     40 C          59.8045   89.2048   11.4263 C.3     1  UNL1        0.0263
     41 C          60.9397   86.9519   10.8051 C.3     1  UNL1        0.0263
@<TRIPOS>BOND
     1    27    28    1
     2    28    29   ar
     3    29    30   ar
     4    30    31   ar
     5    31    25    1
     6    25     1    1
     7     1     2   ar
     8     2     3   ar
     9     3     4   ar
    10     4     8    1
    11     8     9    1
    12     9    10    1
    13    10    11    1
    14    11    14    1
    15    14    15    1
    16    14    16    1
    17    16    17    1
    18    17    18    1
    19    18    19    1
    20    19    20    1
    21    20    21    1
    22    21    22    1
    23    21    23    1
    24    23    24    1
    25    11    12    1
    26    12    13    1
    27     4     5   ar
    28     5     6    1
    29     5     7   ar
    30    31    32   ar
    31    32    33   ar
    32    33    34    1
    33    34    35   ar
    34    35    36   ar
    35    36    37   ar
    36    37    39    1
    37    39    40    1
    38    39    41    1
    39    37    38   ar
    40    33    28   ar
    41    38    34   ar
    42     7     1   ar
    43    13     8    1
    44    24    18    1
    45    25    26    1
@<TRIPOS>MOLECULE
*****
 41 45 0 0 0
SMALL
GASTEIGER

@<TRIPOS>ATOM
      1 C          62.0444   85.2973   10.9436 C.ar    1  UNL1        0.0528
      2 C          61.3169   86.4927   11.4839 C.ar    1  UNL1        0.0161
      3 C          60.6834   87.4737   10.5426 C.ar    1  UNL1        0.0181
      4 C          60.7773   87.2595    9.0609 C.ar    1  UNL1        0.0757
      5 C          61.5047   86.0641    8.5206 C.ar    1  UNL1        0.1545
      6 F          61.5986   85.8499    7.0390 F       1  UNL1       -0.2028
      7 C          62.1383   85.0830    9.4619 C.ar    1  UNL1        0.0456
      8 N          60.1437   88.2406    8.1196 N.pl3   1  UNL1       -0.3057
      9 C          58.8974   87.8665    7.3734 C.3     1  UNL1        0.0922
     10 C          58.2639   88.8476    6.4322 C.3     1  UNL1        0.0374
     11 C          58.8766   90.2028    6.2371 C.3     1  UNL1        0.0610
     12 C          60.1229   90.5768    6.9832 C.3     1  UNL1        0.0374
     13 C          60.7564   89.5957    7.9245 C.3     1  UNL1        0.0922
     14 N          58.2430   91.1839    5.2957 N.3     1  UNL1       -0.2715
     15 C          56.7950   91.0447    4.9302 C.3     1  UNL1        0.0896
     16 C          59.0576   92.3042    4.7200 C.3     1  UNL1        0.0896
     17 C          59.3394   92.3467    3.2474 C.3     1  UNL1        0.0897
     18 N          60.6850   92.7889    2.7537 N.3     1  UNL1       -0.2691
     19 C          61.9143   92.0195    3.1367 C.3     1  UNL1        0.0897
     20 C          63.2600   92.4616    2.6430 C.3     1  UNL1        0.0897
     21 N          63.3763   93.6732    1.7663 N.3     1  UNL1       -0.2691
     22 C          64.7220   94.1153    1.2726 C.3     1  UNL1        0.0897
     23 C          62.1470   94.4426    1.3833 C.3     1  UNL1        0.0897
     24 C          60.8013   94.0004    1.8770 C.3     1  UNL1        0.0897
     25 N          62.6779   84.3162   11.8849 N.pl3   1  UNL1       -0.2825
     26 H          62.8972   83.4079   11.5750 H       1  UNL1        0.1551
     27 C          63.8760   85.9280   17.5388 C.3     1  UNL1        0.0342
     28 C          63.5765   85.5250   16.1254 C.ar    1  UNL1        0.0152
     29 C          63.3655   84.0792   15.7863 C.ar    1  UNL1        0.0990
     30 N          63.0659   83.6763   14.3728 N.ar    1  UNL1       -0.2123
     31 C          62.9775   84.7192   13.2984 C.ar    1  UNL1        0.2207
     32 N          63.1885   86.1650   13.6374 N.ar    1  UNL1       -0.2138
     33 C          63.4880   86.5679   15.0509 C.ar    1  UNL1        0.0847
     34 C          63.6990   88.0139   15.3899 C.ar    1  UNL1        0.0571
     35 C          63.0343   88.7639   16.5059 C.ar    1  UNL1        0.1231
     36 N          63.5363   90.1771   16.4782 N.ar    1  UNL1       -0.1677
     37 N          64.5113   90.3005   15.3449 N.ar    1  UNL1       -0.2513
     38 C          64.6119   88.9635   14.6724 C.ar    1  UNL1        0.0980
     39 C          65.2551   91.5428   14.9531 C.3     1  UNL1        0.1054
     40 C          65.8715   92.4122   16.0086 C.3     1  UNL1        0.0263
     41 C          65.3826   91.9155   13.5057 C.3     1  UNL1        0.0263
@<TRIPOS>BOND
     1    27    28    1
     2    28    29   ar
     3    29    30   ar
     4    30    31   ar
     5    31    25    1
     6    25     1    1
     7     1     2   ar
     8     2     3   ar
     9     3     4   ar
    10     4     8    1
    11     8     9    1
    12     9    10    1
    13    10    11    1
    14    11    14    1
    15    14    15    1
    16    14    16    1
    17    16    17    1
    18    17    18    1
    19    18    19    1
    20    19    20    1
    21    20    21    1
    22    21    22    1
    23    21    23    1
    24    23    24    1
    25    11    12    1
    26    12    13    1
    27     4     5   ar
    28     5     6    1
    29     5     7   ar
    30    31    32   ar
    31    32    33   ar
    32    33    34    1
    33    34    35   ar
    34    35    36   ar
    35    36    37   ar
    36    37    39    1
    37    39    40    1
    38    39    41    1
    39    37    38   ar
    40    33    28   ar
    41    38    34   ar
    42     7     1   ar
    43    13     8    1
    44    24    18    1
    45    25    26    1
