@<TRIPOS>MOLECULE
*****
 36 38 0 0 0
SMALL
GASTEIGER

@<TRIPOS>ATOM
      1 C          63.3823   84.2618   14.0545 C.3     1  UNL1        0.1092
      2 C          63.8206   84.3333   15.4872 C.3     1  UNL1        0.1598
      3 O          64.2077   85.6519   16.0883 O.3     1  UNL1       -0.3507
      4 C          64.1565   86.8992   15.2566 C.3     1  UNL1        0.1636
      5 C          63.7183   86.8277   13.8239 C.3     1  UNL1        0.1527
      6 N          63.3311   85.5091   13.2228 N.3     1  UNL1       -0.1496
      7 C          61.6452   83.0451   14.0993 C.3     1  UNL1        0.0015
      8 C          62.9952   82.9432   13.4535 C.3     1  UNL1        0.0175
      9 C          64.1586   82.7074   12.8106 C.3     1  UNL1        0.0015
     10 C          62.6081   81.6245   12.8524 C.3     1  UNL1        0.0015
     11 S          62.8928   85.4377   11.7900 S.O2    1  UNL1        0.0635
     12 O          61.5531   85.9937   12.1721 O.2     1  UNL1       -0.1528
     13 O          64.0415   84.9331   11.2915 O.2     1  UNL1       -0.1528
     14 C          62.4546   85.3663   10.3573 C.ar    1  UNL1        0.1223
     15 C          63.3001   84.6458    9.3493 C.ar    1  UNL1        0.0208
     16 C          62.8618   84.5744    7.9165 C.ar    1  UNL1        0.0128
     17 C          61.5780   85.2235    7.4917 C.ar    1  UNL1        0.0578
     18 CL         61.1398   85.1521    6.0590 Cl      1  UNL1       -0.0822
     19 C          60.7325   85.9440    8.4997 C.ar    1  UNL1        0.0128
     20 C          61.1707   86.0154    9.9324 C.ar    1  UNL1        0.0208
     21 C          63.6671   88.0750   12.9921 C.3     1  UNL1        0.2302
     22 O          63.1225   89.3445   13.5767 O.3     1  UNL1       -0.4329
     23 C          64.0562   90.3594   14.1669 C.2     1  UNL1        0.4050
     24 O          64.3586   90.3353   15.6359 O.2     1  UNL1       -0.2262
     25 N          64.6873   91.3983   13.2882 N.am    1  UNL1       -0.2432
     26 C          64.3849   91.4224   11.8192 C.3     1  UNL1        0.1141
     27 C          65.0161   92.4613   10.9405 C.3     1  UNL1        0.0940
     28 N          65.9497   93.4762   11.5307 N.3     1  UNL1       -0.2699
     29 C          66.2521   93.4521   12.9997 C.3     1  UNL1        0.0940
     30 C          65.6209   92.4131   13.8785 C.3     1  UNL1        0.1141
     31 C          66.5809   94.5152   10.6520 C.3     1  UNL1        0.0726
     32 C          66.0850   95.5928   11.5699 C.3     1  UNL1        0.0186
     33 C          67.0768   93.4375    9.7341 C.3     1  UNL1        0.0186
     34 C          67.2121   95.5541    9.7733 C.3     1  UNL1        0.1516
     35 O          68.0129   95.1372    8.5754 O.3     1  UNL1       -0.3806
     36 H          68.8089   94.6657    8.8667 H       1  UNL1        0.2105
@<TRIPOS>BOND
     1     7     8    1
     2     8     9    1
     3     8    10    1
     4     1     8    1
     5     1     2    1
     6     2     3    1
     7     3     4    1
     8     4     5    1
     9     5    21    1
    10    21    22    1
    11    22    23    1
    12    23    24    2
    13    23    25   am
    14    25    26    1
    15    26    27    1
    16    27    28    1
    17    28    31    1
    18    31    32    1
    19    31    33    1
    20    31    34    1
    21    34    35    1
    22    28    29    1
    23    29    30    1
    24     5     6    1
    25     6    11    1
    26    11    12    2
    27    11    13    2
    28    11    14    1
    29    14    15   ar
    30    15    16   ar
    31    16    17   ar
    32    17    18    1
    33    17    19   ar
    34    19    20   ar
    35     6     1    1
    36    20    14   ar
    37    30    25    1
    38    35    36    1
@<TRIPOS>MOLECULE
*****
 36 38 0 0 0
SMALL
GASTEIGER

@<TRIPOS>ATOM
      1 C          60.6771   87.8627    9.0444 C.3     1  UNL1        0.1092
      2 C          60.1285   89.1837    8.5929 C.3     1  UNL1        0.1598
      3 O          60.3805   90.4182    9.4068 O.3     1  UNL1       -0.3507
      4 C          61.1811   90.3317   10.6723 C.3     1  UNL1        0.1636
      5 C          61.7296   89.0107   11.1239 C.3     1  UNL1        0.1527
      6 N          61.4776   87.7762   10.3099 N.3     1  UNL1       -0.1496
      7 C          58.9548   86.7496    8.5016 C.3     1  UNL1        0.0015
      8 C          60.4251   86.6282    8.2305 C.3     1  UNL1        0.0175
      9 C          61.7108   86.3844    7.8989 C.3     1  UNL1        0.0015
     10 C          60.1730   85.3937    7.4165 C.3     1  UNL1        0.0015
     11 S          62.0263   86.4551   10.7615 S.O2    1  UNL1        0.0635
     12 O          60.8826   86.3081   11.7209 O.2     1  UNL1       -0.1528
     13 O          63.1081   86.4416    9.9540 O.2     1  UNL1       -0.1528
     14 C          62.5749   85.1341   11.2131 C.ar    1  UNL1        0.1223
     15 C          62.4405   84.7171   12.6476 C.ar    1  UNL1        0.0208
     16 C          62.9892   83.3960   13.0992 C.ar    1  UNL1        0.0128
     17 C          63.6722   82.4921   12.1161 C.ar    1  UNL1        0.0578
     18 CL         64.2208   81.1711   12.5677 Cl      1  UNL1       -0.0822
     19 C          63.8066   82.9091   10.6816 C.ar    1  UNL1        0.0128
     20 C          63.2579   84.2301   10.2300 C.ar    1  UNL1        0.0208
     21 C          62.5303   88.9241   12.3894 C.3     1  UNL1        0.2302
     22 O          62.4809   90.0438   13.3862 O.3     1  UNL1       -0.4329
     23 C          63.7531   90.6764   13.8673 C.2     1  UNL1        0.4050
     24 O          64.1753   90.5179   15.2979 O.2     1  UNL1       -0.2262
     25 N          64.6031   91.4675   12.9178 N.am    1  UNL1       -0.2432
     26 C          64.1810   91.6261   11.4872 C.3     1  UNL1        0.1141
     27 C          65.0309   92.4171   10.5376 C.3     1  UNL1        0.0940
     28 N          66.3032   93.0497   11.0187 N.3     1  UNL1       -0.2699
     29 C          66.7253   92.8912   12.4493 C.3     1  UNL1        0.0940
     30 C          65.8753   92.1000   13.3988 C.3     1  UNL1        0.1141
     31 C          67.1532   93.8408   10.0692 C.3     1  UNL1        0.0726
     32 C          67.9117   92.5970    9.7119 C.3     1  UNL1        0.0186
     33 C          66.3947   95.0846   10.4264 C.3     1  UNL1        0.0186
     34 C          68.0032   94.6319    9.1196 C.3     1  UNL1        0.1516
     35 O          67.7883   96.1092    8.9733 O.3     1  UNL1       -0.3806
     36 H          66.9151   96.2719    8.5835 H       1  UNL1        0.2105
@<TRIPOS>BOND
     1     7     8    1
     2     8     9    1
     3     8    10    1
     4     1     8    1
     5     1     2    1
     6     2     3    1
     7     3     4    1
     8     4     5    1
     9     5    21    1
    10    21    22    1
    11    22    23    1
    12    23    24    2
    13    23    25   am
    14    25    26    1
    15    26    27    1
    16    27    28    1
    17    28    31    1
    18    31    32    1
    19    31    33    1
    20    31    34    1
    21    34    35    1
    22    28    29    1
    23    29    30    1
    24     5     6    1
    25     6    11    1
    26    11    12    2
    27    11    13    2
    28    11    14    1
    29    14    15   ar
    30    15    16   ar
    31    16    17   ar
    32    17    18    1
    33    17    19   ar
    34    19    20   ar
    35     6     1    1
    36    20    14   ar
    37    30    25    1
    38    35    36    1
@<TRIPOS>MOLECULE
*****
 36 38 0 0 0
SMALL
GASTEIGER

@<TRIPOS>ATOM
      1 C          63.5874   84.7666   13.3394 C.3     1  UNL1        0.1092
      2 C          64.4554   84.5934   14.5503 C.3     1  UNL1        0.1598
      3 O          64.9841   85.7971   15.2726 O.3     1  UNL1       -0.3507
      4 C          64.6447   87.1740   14.7838 C.3     1  UNL1        0.1636
      5 C          63.7767   87.3472   13.5728 C.3     1  UNL1        0.1527
      6 N          63.2480   86.1435   12.8506 N.3     1  UNL1       -0.1496
      7 C          62.1183   83.2936   13.7543 C.3     1  UNL1        0.0015
      8 C          63.0587   83.5629   12.6171 C.3     1  UNL1        0.0175
      9 C          63.8408   83.6713   11.5221 C.3     1  UNL1        0.0015
     10 C          62.5301   82.3592   11.8949 C.3     1  UNL1        0.0015
     11 S          62.3800   86.3168   11.6396 S.O2    1  UNL1        0.0635
     12 O          61.1570   86.1581   12.4934 O.2     1  UNL1       -0.1528
     13 O          63.3773   86.4774   10.7440 O.2     1  UNL1       -0.1528
     14 C          61.5120   86.4900   10.4286 C.ar    1  UNL1        0.1223
     15 C          60.3594   87.4494   10.4630 C.ar    1  UNL1        0.0208
     16 C          59.4914   87.6226    9.2519 C.ar    1  UNL1        0.0128
     17 C          59.7761   86.8365    8.0065 C.ar    1  UNL1        0.0578
     18 CL         58.9081   87.0098    6.7955 Cl      1  UNL1       -0.0822
     19 C          60.9287   85.8772    7.9721 C.ar    1  UNL1        0.0128
     20 C          61.7966   85.7039    9.1831 C.ar    1  UNL1        0.0208
     21 C          63.4373   88.7242   13.0840 C.3     1  UNL1        0.2302
     22 O          63.0900   89.8040   14.0655 O.3     1  UNL1       -0.4329
     23 C          64.1085   90.8438   14.4281 C.2     1  UNL1        0.4050
     24 O          64.4867   91.0545   15.8643 O.2     1  UNL1       -0.2262
     25 N          64.7488   91.6730   13.3546 N.am    1  UNL1       -0.2432
     26 C          64.3707   91.4623   11.9184 C.3     1  UNL1        0.1141
     27 C          65.0109   92.2915   10.8448 C.3     1  UNL1        0.0940
     28 N          66.0294   93.3313   11.2075 N.3     1  UNL1       -0.2699
     29 C          66.4076   93.5420   12.6436 C.3     1  UNL1        0.0940
     30 C          65.7673   92.7128   13.7172 C.3     1  UNL1        0.1141
     31 C          66.6697   94.1605   10.1339 C.3     1  UNL1        0.0726
     32 C          65.7486   95.2976   10.4628 C.3     1  UNL1        0.0186
     33 C          67.5909   93.0233    9.8050 C.3     1  UNL1        0.0186
     34 C          67.3100   94.9896    9.0604 C.3     1  UNL1        0.1516
     35 O          66.5149   95.4028    7.8574 O.3     1  UNL1       -0.3806
     36 H          66.2819   94.6172    7.3384 H       1  UNL1        0.2105
@<TRIPOS>BOND
     1     7     8    1
     2     8     9    1
     3     8    10    1
     4     1     8    1
     5     1     2    1
     6     2     3    1
     7     3     4    1
     8     4     5    1
     9     5    21    1
    10    21    22    1
    11    22    23    1
    12    23    24    2
    13    23    25   am
    14    25    26    1
    15    26    27    1
    16    27    28    1
    17    28    31    1
    18    31    32    1
    19    31    33    1
    20    31    34    1
    21    34    35    1
    22    28    29    1
    23    29    30    1
    24     5     6    1
    25     6    11    1
    26    11    12    2
    27    11    13    2
    28    11    14    1
    29    14    15   ar
    30    15    16   ar
    31    16    17   ar
    32    17    18    1
    33    17    19   ar
    34    19    20   ar
    35     6     1    1
    36    20    14   ar
    37    30    25    1
    38    35    36    1
@<TRIPOS>MOLECULE
*****
 36 38 0 0 0
SMALL
GASTEIGER

@<TRIPOS>ATOM
      1 C          60.5089   87.1992    8.0712 C.3     1  UNL1        0.1092
      2 C          59.7883   88.3388    7.4139 C.3     1  UNL1        0.1598
      3 O          59.7268   89.6767    8.0894 O.3     1  UNL1       -0.3507
      4 C          60.3859   89.8750    9.4221 C.3     1  UNL1        0.1636
      5 C          61.1065   88.7354   10.0794 C.3     1  UNL1        0.1527
      6 N          61.1680   87.3975    9.4040 N.3     1  UNL1       -0.1496
      7 C          59.0847   85.7182    7.5438 C.3     1  UNL1        0.0015
      8 C          60.5705   85.8613    7.3958 C.3     1  UNL1        0.0175
      9 C          61.9044   85.8423    7.1894 C.3     1  UNL1        0.0015
     10 C          60.6320   84.5234    6.7203 C.3     1  UNL1        0.0015
     11 S          61.8887   86.2579   10.0613 S.O2    1  UNL1        0.0635
     12 O          63.1220   86.5822    9.2715 O.2     1  UNL1       -0.1528
     13 O          60.8660   85.8433   10.8390 O.2     1  UNL1       -0.1528
     14 C          62.6093   85.1184   10.7187 C.ar    1  UNL1        0.1223
     15 C          62.4737   84.8977   12.1961 C.ar    1  UNL1        0.0208
     16 C          63.1944   83.7581   12.8535 C.ar    1  UNL1        0.0128
     17 C          64.0505   82.8392   12.0334 C.ar    1  UNL1        0.0578
     18 CL         64.7711   81.6997   12.6907 Cl      1  UNL1       -0.0822
     19 C          64.1860   83.0599   10.5559 C.ar    1  UNL1        0.0128
     20 C          63.4654   84.1994    9.8985 C.ar    1  UNL1        0.0208
     21 C          61.7656   88.9338   11.4122 C.3     1  UNL1        0.2302
     22 O          61.9835   90.3199   11.9423 O.3     1  UNL1       -0.4329
     23 C          63.1410   91.1377   11.4505 C.2     1  UNL1        0.4050
     24 O          63.1578   91.6394   10.0370 O.2     1  UNL1       -0.2262
     25 N          64.2814   91.4536   12.3722 N.am    1  UNL1       -0.2432
     26 C          64.2645   90.9518   13.7857 C.3     1  UNL1        0.1141
     27 C          65.4049   91.2677   14.7074 C.3     1  UNL1        0.0940
     28 N          66.5623   92.0855   14.2156 N.3     1  UNL1       -0.2699
     29 C          66.5792   92.5873   12.8021 C.3     1  UNL1        0.0940
     30 C          65.4387   92.2713   11.8804 C.3     1  UNL1        0.1141
     31 C          67.7028   92.4014   15.1373 C.3     1  UNL1        0.0726
     32 C          66.7304   92.6808   16.2447 C.3     1  UNL1        0.0186
     33 C          68.6752   92.1220   14.0299 C.3     1  UNL1        0.0186
     34 C          68.8432   92.7174   16.0589 C.3     1  UNL1        0.1516
     35 O          69.4747   94.0778   16.0319 O.3     1  UNL1       -0.3806
     36 H          69.9139   94.2134   15.1778 H       1  UNL1        0.2105
@<TRIPOS>BOND
     1     7     8    1
     2     8     9    1
     3     8    10    1
     4     1     8    1
     5     1     2    1
     6     2     3    1
     7     3     4    1
     8     4     5    1
     9     5    21    1
    10    21    22    1
    11    22    23    1
    12    23    24    2
    13    23    25   am
    14    25    26    1
    15    26    27    1
    16    27    28    1
    17    28    31    1
    18    31    32    1
    19    31    33    1
    20    31    34    1
    21    34    35    1
    22    28    29    1
    23    29    30    1
    24     5     6    1
    25     6    11    1
    26    11    12    2
    27    11    13    2
    28    11    14    1
    29    14    15   ar
    30    15    16   ar
    31    16    17   ar
    32    17    18    1
    33    17    19   ar
    34    19    20   ar
    35     6     1    1
    36    20    14   ar
    37    30    25    1
    38    35    36    1
@<TRIPOS>MOLECULE
*****
 36 38 0 0 0
SMALL
GASTEIGER

@<TRIPOS>ATOM
      1 C          63.0182   84.0060   14.9830 C.3     1  UNL1        0.1092
      2 C          63.1621   84.0818   16.4741 C.3     1  UNL1        0.1598
      3 O          63.6311   85.3524   17.1187 O.3     1  UNL1       -0.3507
      4 C          63.9564   86.5472   16.2722 C.3     1  UNL1        0.1636
      5 C          63.8125   86.4714   14.7811 C.3     1  UNL1        0.1527
      6 N          63.3435   85.2008   14.1365 N.3     1  UNL1       -0.1496
      7 C          63.9737   82.3039   14.1523 C.3     1  UNL1        0.0015
      8 C          62.5492   82.7354   14.3384 C.3     1  UNL1        0.0175
      9 C          61.2252   82.9814   14.4338 C.3     1  UNL1        0.0015
     10 C          62.0801   81.4648   13.6937 C.3     1  UNL1        0.0015
     11 S          63.1996   85.1250   12.6452 S.O2    1  UNL1        0.0635
     12 O          64.5624   84.5063   12.5452 O.2     1  UNL1       -0.1528
     13 O          61.9665   85.6694   12.5710 O.2     1  UNL1       -0.1528
     14 C          63.0558   85.0493   11.1541 C.ar    1  UNL1        0.1223
     15 C          63.6750   83.9115   10.3977 C.ar    1  UNL1        0.0208
     16 C          63.5311   83.8358    8.9065 C.ar    1  UNL1        0.0128
     17 C          62.7680   84.8978    8.1718 C.ar    1  UNL1        0.0578
     18 CL         62.6241   84.8220    6.6806 Cl      1  UNL1       -0.0822
     19 C          62.1488   86.0355    8.9282 C.ar    1  UNL1        0.0128
     20 C          62.2927   86.1113   10.4193 C.ar    1  UNL1        0.0208
     21 C          64.1378   87.6662   13.9345 C.3     1  UNL1        0.2302
     22 O          63.2426   88.8695   13.9600 O.3     1  UNL1       -0.4329
     23 C          62.8698   89.5543   12.6785 C.2     1  UNL1        0.4050
     24 O          61.6090   89.1704   11.9623 O.2     1  UNL1       -0.2262
     25 N          63.7578   90.6229   12.1133 N.am    1  UNL1       -0.2432
     26 C          65.0186   91.0068   12.8295 C.3     1  UNL1        0.1141
     27 C          65.9065   92.0755   12.2642 C.3     1  UNL1        0.0940
     28 N          65.5337   92.7602   10.9827 N.3     1  UNL1       -0.2699
     29 C          64.2729   92.3763   10.2665 C.3     1  UNL1        0.0940
     30 C          63.3849   91.3076   10.8318 C.3     1  UNL1        0.1141
     31 C          66.4217   93.8289   10.4175 C.3     1  UNL1        0.0726
     32 C          67.2840   92.7774    9.7843 C.3     1  UNL1        0.0186
     33 C          65.5594   94.8803   11.0507 C.3     1  UNL1        0.0186
     34 C          67.3096   94.8975    9.8523 C.3     1  UNL1        0.1516
     35 O          68.7175   94.5688    9.4521 O.3     1  UNL1       -0.3806
     36 H          69.2306   94.3315   10.2404 H       1  UNL1        0.2105
@<TRIPOS>BOND
     1     7     8    1
     2     8     9    1
     3     8    10    1
     4     1     8    1
     5     1     2    1
     6     2     3    1
     7     3     4    1
     8     4     5    1
     9     5    21    1
    10    21    22    1
    11    22    23    1
    12    23    24    2
    13    23    25   am
    14    25    26    1
    15    26    27    1
    16    27    28    1
    17    28    31    1
    18    31    32    1
    19    31    33    1
    20    31    34    1
    21    34    35    1
    22    28    29    1
    23    29    30    1
    24     5     6    1
    25     6    11    1
    26    11    12    2
    27    11    13    2
    28    11    14    1
    29    14    15   ar
    30    15    16   ar
    31    16    17   ar
    32    17    18    1
    33    17    19   ar
    34    19    20   ar
    35     6     1    1
    36    20    14   ar
    37    30    25    1
    38    35    36    1
@<TRIPOS>MOLECULE
*****
 36 38 0 0 0
SMALL
GASTEIGER

@<TRIPOS>ATOM
      1 C          63.1513   83.4673   14.3169 C.3     1  UNL1        0.1092
      2 C          63.3811   83.4409   15.7989 C.3     1  UNL1        0.1598
      3 O          63.8512   84.6768   16.5072 O.3     1  UNL1       -0.3507
      4 C          64.0914   85.9391   15.7334 C.3     1  UNL1        0.1636
      5 C          63.8616   85.9655   14.2514 C.3     1  UNL1        0.1527
      6 N          63.3915   84.7296   13.5432 N.3     1  UNL1       -0.1496
      7 C          64.0795   81.9733   13.1310 C.3     1  UNL1        0.0015
      8 C          62.6812   82.2314   13.6087 C.3     1  UNL1        0.0175
      9 C          61.3806   82.3264   13.9577 C.3     1  UNL1        0.0015
     10 C          62.2111   80.9955   12.9004 C.3     1  UNL1        0.0015
     11 S          63.1617   84.7561   12.0610 S.O2    1  UNL1        0.0635
     12 O          61.7974   85.3388   12.2830 O.2     1  UNL1       -0.1528
     13 O          64.3552   84.2386   11.7002 O.2     1  UNL1       -0.1528
     14 C          62.9319   84.7826   10.5790 C.ar    1  UNL1        0.1223
     15 C          62.0353   85.8239    9.9775 C.ar    1  UNL1        0.0208
     16 C          61.8055   85.8503    8.4954 C.ar    1  UNL1        0.0128
     17 C          62.4724   84.8355    7.6149 C.ar    1  UNL1        0.0578
     18 CL         62.2426   84.8619    6.1328 Cl      1  UNL1       -0.0822
     19 C          63.3690   83.7942    8.2164 C.ar    1  UNL1        0.0128
     20 C          63.5988   83.7677    9.6984 C.ar    1  UNL1        0.0208
     21 C          64.1018   87.2279   13.4775 C.3     1  UNL1        0.2302
     22 O          62.9586   88.1498   13.1727 O.3     1  UNL1       -0.4329
     23 C          63.2150   89.4654   12.4991 C.2     1  UNL1        0.4050
     24 O          62.4823   89.8179   11.2386 O.2     1  UNL1       -0.2262
     25 N          64.2040   90.4283   13.0861 N.am    1  UNL1       -0.2432
     26 C          64.9367   90.0757   14.3466 C.3     1  UNL1        0.1141
     27 C          65.9257   91.0386   14.9335 C.3     1  UNL1        0.0940
     28 N          66.1821   92.3542   14.2599 N.3     1  UNL1       -0.2699
     29 C          65.4495   92.7068   12.9994 C.3     1  UNL1        0.0940
     30 C          64.4604   91.7438   12.4125 C.3     1  UNL1        0.1141
     31 C          67.1712   93.3171   14.8469 C.3     1  UNL1        0.0726
     32 C          67.5623   92.2920   15.8696 C.3     1  UNL1        0.0186
     33 C          66.7801   94.3423   13.8241 C.3     1  UNL1        0.0186
     34 C          68.1602   94.2800   15.4338 C.3     1  UNL1        0.1516
     35 O          69.4136   93.7676   16.0793 O.3     1  UNL1       -0.3806
     36 H          69.1843   93.2644   16.8763 H       1  UNL1        0.2105
@<TRIPOS>BOND
     1     7     8    1
     2     8     9    1
     3     8    10    1
     4     1     8    1
     5     1     2    1
     6     2     3    1
     7     3     4    1
     8     4     5    1
     9     5    21    1
    10    21    22    1
    11    22    23    1
    12    23    24    2
    13    23    25   am
    14    25    26    1
    15    26    27    1
    16    27    28    1
    17    28    31    1
    18    31    32    1
    19    31    33    1
    20    31    34    1
    21    34    35    1
    22    28    29    1
    23    29    30    1
    24     5     6    1
    25     6    11    1
    26    11    12    2
    27    11    13    2
    28    11    14    1
    29    14    15   ar
    30    15    16   ar
    31    16    17   ar
    32    17    18    1
    33    17    19   ar
    34    19    20   ar
    35     6     1    1
    36    20    14   ar
    37    30    25    1
    38    35    36    1
@<TRIPOS>MOLECULE
*****
 36 38 0 0 0
SMALL
GASTEIGER

@<TRIPOS>ATOM
      1 C          62.4443   94.5431    0.9256 C.3     1  UNL1        0.1092
      2 C          63.6882   95.2309    1.4047 C.3     1  UNL1        0.1598
      3 O          64.3897   96.2160    0.5174 O.3     1  UNL1       -0.3507
      4 C          63.8473   96.5133   -0.8491 C.3     1  UNL1        0.1636
      5 C          62.6034   95.8256   -1.3283 C.3     1  UNL1        0.1527
      6 N          61.9019   94.8405   -0.4409 N.3     1  UNL1       -0.1496
      7 C          62.7624   92.5155    1.4617 C.3     1  UNL1        0.0015
      8 C          61.7428   93.5580    1.8130 C.3     1  UNL1        0.0175
      9 C          60.7550   94.3812    2.2242 C.3     1  UNL1        0.0015
     10 C          61.0412   92.5729    2.7004 C.3     1  UNL1        0.0015
     11 S          60.6579   94.1527   -0.9201 S.O2    1  UNL1        0.0635
     12 O          61.4942   93.0763   -1.5462 O.2     1  UNL1       -0.1528
     13 O          59.7744   95.0388   -0.4133 O.2     1  UNL1       -0.1528
     14 C          59.4140   93.4649   -1.3992 C.ar    1  UNL1        0.1223
     15 C          59.2763   93.0846   -2.8436 C.ar    1  UNL1        0.0208
     16 C          58.0322   92.3968   -3.3228 C.ar    1  UNL1        0.0128
     17 C          56.9260   92.0895   -2.3575 C.ar    1  UNL1        0.0578
     18 CL         55.6821   91.4018   -2.8366 Cl      1  UNL1       -0.0822
     19 C          57.0638   92.4698   -0.9131 C.ar    1  UNL1        0.0128
     20 C          58.3077   93.1576   -0.4339 C.ar    1  UNL1        0.0208
     21 C          62.0610   96.1229   -2.6948 C.3     1  UNL1        0.2302
     22 O          60.7604   96.8555   -2.8425 O.3     1  UNL1       -0.4329
     23 C          59.8359   96.5215   -3.9755 C.2     1  UNL1        0.4050
     24 O          60.3896   96.2744   -5.3474 O.2     1  UNL1       -0.2262
     25 N          58.3576   96.4346   -3.7365 N.am    1  UNL1       -0.2432
     26 C          57.8038   96.6817   -2.3645 C.3     1  UNL1        0.1141
     27 C          56.3256   96.5948   -2.1256 C.3     1  UNL1        0.0940
     28 N          55.4010   96.2607   -3.2586 N.3     1  UNL1       -0.2699
     29 C          55.9548   96.0136   -4.6306 C.3     1  UNL1        0.0940
     30 C          57.4331   96.1006   -4.8695 C.3     1  UNL1        0.1141
     31 C          53.9227   96.1738   -3.0196 C.3     1  UNL1        0.0726
     32 C          53.6750   96.3475   -4.4888 C.3     1  UNL1        0.0186
     33 C          54.1704   96.0002   -1.5505 C.3     1  UNL1        0.0186
     34 C          52.4445   96.0869   -2.7807 C.3     1  UNL1        0.1516
     35 O          51.8847   94.9789   -1.9386 O.3     1  UNL1       -0.3806
     36 H          52.0271   94.1298   -2.3854 H       1  UNL1        0.2105
@<TRIPOS>BOND
     1     7     8    1
     2     8     9    1
     3     8    10    1
     4     1     8    1
     5     1     2    1
     6     2     3    1
     7     3     4    1
     8     4     5    1
     9     5    21    1
    10    21    22    1
    11    22    23    1
    12    23    24    2
    13    23    25   am
    14    25    26    1
    15    26    27    1
    16    27    28    1
    17    28    31    1
    18    31    32    1
    19    31    33    1
    20    31    34    1
    21    34    35    1
    22    28    29    1
    23    29    30    1
    24     5     6    1
    25     6    11    1
    26    11    12    2
    27    11    13    2
    28    11    14    1
    29    14    15   ar
    30    15    16   ar
    31    16    17   ar
    32    17    18    1
    33    17    19   ar
    34    19    20   ar
    35     6     1    1
    36    20    14   ar
    37    30    25    1
    38    35    36    1
@<TRIPOS>MOLECULE
*****
 36 38 0 0 0
SMALL
GASTEIGER

@<TRIPOS>ATOM
      1 C          61.8830   94.6956    0.7692 C.3     1  UNL1        0.1092
      2 C          61.2178   95.1972    2.0165 C.3     1  UNL1        0.1598
      3 O          59.9221   95.9475    1.9256 O.3     1  UNL1       -0.3507
      4 C          59.2917   96.1962    0.5874 C.3     1  UNL1        0.1636
      5 C          59.9569   95.6945   -0.6598 C.3     1  UNL1        0.1527
      6 N          61.2526   94.9442   -0.5690 N.3     1  UNL1       -0.1496
      7 C          62.4241   92.6712    1.0996 C.3     1  UNL1        0.0015
      8 C          63.1787   93.9453    0.8601 C.3     1  UNL1        0.0175
      9 C          63.9949   95.0010    0.6561 C.3     1  UNL1        0.0015
     10 C          64.4744   93.1950    0.9510 C.3     1  UNL1        0.0015
     11 S          61.9179   94.4426   -1.8163 S.O2    1  UNL1        0.0635
     12 O          62.6585   95.7407   -1.9434 O.2     1  UNL1       -0.1528
     13 O          61.3292   93.2279   -1.8396 O.2     1  UNL1       -0.1528
     14 C          62.5831   93.9409   -3.0636 C.ar    1  UNL1        0.1223
     15 C          63.7606   93.0169   -2.9659 C.ar    1  UNL1        0.0208
     16 C          64.4258   92.5152   -4.2133 C.ar    1  UNL1        0.0128
     17 C          63.9135   92.9376   -5.5583 C.ar    1  UNL1        0.0578
     18 CL         64.5787   92.4359   -6.8056 Cl      1  UNL1       -0.0822
     19 C          62.7359   93.8616   -5.6560 C.ar    1  UNL1        0.0128
     20 C          62.0707   94.3632   -4.4087 C.ar    1  UNL1        0.0208
     21 C          59.3265   95.9432   -1.9981 C.3     1  UNL1        0.2302
     22 O          57.9316   95.4638   -2.2707 O.3     1  UNL1       -0.4329
     23 C          57.5792   94.0214   -2.0579 C.2     1  UNL1        0.4050
     24 O          57.8793   93.3619   -0.7445 O.2     1  UNL1       -0.2262
     25 N          56.9267   93.2385   -3.1585 N.am    1  UNL1       -0.2432
     26 C          56.6266   93.8980   -4.4719 C.3     1  UNL1        0.1141
     27 C          55.9741   93.1151   -5.5725 C.3     1  UNL1        0.0940
     28 N          55.6217   91.6727   -5.3597 N.3     1  UNL1       -0.2699
     29 C          55.9218   91.0132   -4.0463 C.3     1  UNL1        0.0940
     30 C          56.5743   91.7961   -2.9457 C.3     1  UNL1        0.1141
     31 C          54.9692   90.8898   -6.4603 C.3     1  UNL1        0.0726
     32 C          54.4131   89.9316   -5.4491 C.3     1  UNL1        0.0186
     33 C          55.5253   91.8479   -7.4715 C.3     1  UNL1        0.0186
     34 C          54.3168   90.1069   -7.5609 C.3     1  UNL1        0.1516
     35 O          53.0385   89.3670   -7.2990 O.3     1  UNL1       -0.3806
     36 H          53.2033   88.6507   -6.6660 H       1  UNL1        0.2105
@<TRIPOS>BOND
     1     7     8    1
     2     8     9    1
     3     8    10    1
     4     1     8    1
     5     1     2    1
     6     2     3    1
     7     3     4    1
     8     4     5    1
     9     5    21    1
    10    21    22    1
    11    22    23    1
    12    23    24    2
    13    23    25   am
    14    25    26    1
    15    26    27    1
    16    27    28    1
    17    28    31    1
    18    31    32    1
    19    31    33    1
    20    31    34    1
    21    34    35    1
    22    28    29    1
    23    29    30    1
    24     5     6    1
    25     6    11    1
    26    11    12    2
    27    11    13    2
    28    11    14    1
    29    14    15   ar
    30    15    16   ar
    31    16    17   ar
    32    17    18    1
    33    17    19   ar
    34    19    20   ar
    35     6     1    1
    36    20    14   ar
    37    30    25    1
    38    35    36    1
@<TRIPOS>MOLECULE
*****
 36 38 0 0 0
SMALL
GASTEIGER

@<TRIPOS>ATOM
      1 C          58.4367   94.4382   -2.5288 C.3     1  UNL1        0.1092
      2 C          57.3337   95.0410   -1.7104 C.3     1  UNL1        0.1598
      3 O          57.6029   96.2487   -0.8625 O.3     1  UNL1       -0.3507
      4 C          58.9752   96.8536   -0.8330 C.3     1  UNL1        0.1636
      5 C          60.0782   96.2508   -1.6514 C.3     1  UNL1        0.1527
      6 N          59.8090   95.0431   -2.4994 N.3     1  UNL1       -0.1496
      7 C          58.2998   92.3523   -2.1679 C.3     1  UNL1        0.0015
      8 C          58.1675   93.2305   -3.3768 C.3     1  UNL1        0.0175
      9 C          58.0198   93.8824   -4.5496 C.3     1  UNL1        0.0015
     10 C          57.8982   92.0228   -4.2247 C.3     1  UNL1        0.0015
     11 S          60.9121   94.4403   -3.3178 S.O2    1  UNL1        0.0635
     12 O          60.6175   95.4066   -4.4266 O.2     1  UNL1       -0.1528
     13 O          61.2963   93.5110   -2.4171 O.2     1  UNL1       -0.1528
     14 C          62.0152   93.8375   -4.1362 C.ar    1  UNL1        0.1223
     15 C          63.0643   92.9935   -3.4752 C.ar    1  UNL1        0.0208
     16 C          64.1674   92.3907   -4.2937 C.ar    1  UNL1        0.0128
     17 C          64.2214   92.6319   -5.7731 C.ar    1  UNL1        0.0578
     18 CL         65.3245   92.0292   -6.5915 Cl      1  UNL1       -0.0822
     19 C          63.1723   93.4760   -6.4342 C.ar    1  UNL1        0.0128
     20 C          62.0692   94.0787   -5.6158 C.ar    1  UNL1        0.0208
     21 C          61.4506   96.8557   -1.6220 C.3     1  UNL1        0.2302
     22 O          62.2659   96.8046   -0.3640 O.3     1  UNL1       -0.4329
     23 C          63.0046   95.5510    0.0007 C.2     1  UNL1        0.4050
     24 O          64.3230   95.2428   -0.6448 O.2     1  UNL1       -0.2262
     25 N          62.4248   94.6058    1.0107 N.am    1  UNL1       -0.2432
     26 C          61.1063   94.9140    1.6562 C.3     1  UNL1        0.1141
     27 C          60.5265   93.9687    2.6662 C.3     1  UNL1        0.0940
     28 N          61.2652   92.7151    3.0309 N.3     1  UNL1       -0.2699
     29 C          62.5837   92.4069    2.3855 C.3     1  UNL1        0.0940
     30 C          63.1635   93.3522    1.3753 C.3     1  UNL1        0.1141
     31 C          60.6854   91.7699    4.0410 C.3     1  UNL1        0.0726
     32 C          59.4529   92.6202    4.1293 C.3     1  UNL1        0.0186
     33 C          61.9179   90.9195    3.9526 C.3     1  UNL1        0.0186
     34 C          60.1056   90.8246    5.0510 C.3     1  UNL1        0.1516
     35 O          58.8641   91.2007    5.8041 O.3     1  UNL1       -0.3806
     36 H          59.0522   91.9582    6.3801 H       1  UNL1        0.2105
@<TRIPOS>BOND
     1     7     8    1
     2     8     9    1
     3     8    10    1
     4     1     8    1
     5     1     2    1
     6     2     3    1
     7     3     4    1
     8     4     5    1
     9     5    21    1
    10    21    22    1
    11    22    23    1
    12    23    24    2
    13    23    25   am
    14    25    26    1
    15    26    27    1
    16    27    28    1
    17    28    31    1
    18    31    32    1
    19    31    33    1
    20    31    34    1
    21    34    35    1
    22    28    29    1
    23    29    30    1
    24     5     6    1
    25     6    11    1
    26    11    12    2
    27    11    13    2
    28    11    14    1
    29    14    15   ar
    30    15    16   ar
    31    16    17   ar
    32    17    18    1
    33    17    19   ar
    34    19    20   ar
    35     6     1    1
    36    20    14   ar
    37    30    25    1
    38    35    36    1
