@<TRIPOS>MOLECULE
*****
 27 29 0 0 0
SMALL
GASTEIGER

@<TRIPOS>ATOM
      1 C          65.3997   93.0887   10.8586 C.3     1  UNL1        0.1382
      2 N          65.0429   92.0496   11.8799 N.ar    1  UNL1       -0.2466
      3 C          65.9807   91.7599   13.0142 C.ar    1  UNL1        0.2671
      4 O          67.2753   92.5092   13.1272 O.2     1  UNL1       -0.2668
      5 C          65.6240   90.7209   14.0355 C.ar    1  UNL1        0.0935
      6 C          64.3295   89.9716   13.9226 C.ar    1  UNL1        0.1208
      7 N          63.3917   90.2613   12.7883 N.ar    1  UNL1       -0.2651
      8 C          63.7484   91.3004   11.7670 C.ar    1  UNL1        0.3350
      9 O          62.8106   91.5901   10.6327 O.2     1  UNL1       -0.2461
     10 N          63.9727   88.9325   14.9439 N.pl3   1  UNL1       -0.2930
     11 C          63.2393   89.3277   16.1913 C.3     1  UNL1        0.0922
     12 C          62.8826   88.2886   17.2126 C.3     1  UNL1        0.0229
     13 C          63.2593   86.8544   16.9866 C.3     1  UNL1        0.0190
     14 C          63.9927   86.4593   15.7393 C.3     1  UNL1        0.0709
     15 N          64.3694   85.0250   15.5132 N.3     1  UNL1       -0.3208
     16 C          64.3494   87.4983   14.7179 C.3     1  UNL1        0.1075
     17 H          64.8583   84.9383   14.6222 H       1  UNL1        0.1189
     18 H          63.5266   84.4508   15.4959 H       1  UNL1        0.1189
     19 C          62.0971   89.5120   12.6754 C.3     1  UNL1        0.1391
     20 C          61.7755   88.7555   11.4207 C.ar    1  UNL1        0.0102
     21 C          62.6662   87.6354   10.9711 C.ar    1  UNL1       -0.0017
     22 C          62.3445   86.8789    9.7164 C.ar    1  UNL1       -0.0002
     23 C          61.1321   87.2424    8.9114 C.ar    1  UNL1        0.0007
     24 C          60.2414   88.3624    9.3610 C.ar    1  UNL1        0.0100
     25 C          60.5631   89.1189   10.6157 C.ar    1  UNL1        0.0663
     26 C          59.6724   90.2390   11.0653 C.1     1  UNL1        0.1002
     27 N          58.7817   91.3590   11.5150 N.1     1  UNL1       -0.1908
@<TRIPOS>BOND
     1     1     2    1
     2     2     3   ar
     3     3     4    2
     4     3     5   ar
     5     5     6   ar
     6     6    10    1
     7    10    11    1
     8    11    12    1
     9    12    13    1
    10    13    14    1
    11    14    15    1
    12    14    16    1
    13     6     7   ar
    14     7    19    1
    15    19    20    1
    16    20    21   ar
    17    21    22   ar
    18    22    23   ar
    19    23    24   ar
    20    24    25   ar
    21    25    26    1
    22    26    27    3
    23     7     8   ar
    24     8     9    2
    25     8     2   ar
    26    16    10    1
    27    25    20   ar
    28    15    17    1
    29    15    18    1
@<TRIPOS>MOLECULE
*****
 27 29 0 0 0
SMALL
GASTEIGER

@<TRIPOS>ATOM
      1 C          64.5105   90.3103   13.4357 C.3     1  UNL1        0.1382
      2 N          63.6899   89.5855   12.4104 N.ar    1  UNL1       -0.2466
      3 C          63.3575   90.2518   11.1082 C.ar    1  UNL1        0.2671
      4 O          63.8456   91.6429   10.8314 O.2     1  UNL1       -0.2668
      5 C          62.5369   89.5269   10.0829 C.ar    1  UNL1        0.0935
      6 C          62.0488   88.1359   10.3597 C.ar    1  UNL1        0.1208
      7 N          62.3813   87.4696   11.6618 N.ar    1  UNL1       -0.2651
      8 C          63.2018   88.1945   12.6871 C.ar    1  UNL1        0.3350
      9 O          63.5343   87.5281   13.9893 O.2     1  UNL1       -0.2461
     10 N          61.2283   87.4111    9.3343 N.pl3   1  UNL1       -0.2930
     11 C          59.7605   87.6946    9.2113 C.3     1  UNL1        0.0922
     12 C          58.9399   86.9698    8.1860 C.3     1  UNL1        0.0229
     13 C          59.5871   85.9614    7.2836 C.3     1  UNL1        0.0190
     14 C          61.0549   85.6779    7.4067 C.3     1  UNL1        0.0709
     15 N          61.7022   84.6694    6.5043 N.3     1  UNL1       -0.3208
     16 C          61.8755   86.4027    8.4320 C.3     1  UNL1        0.1075
     17 H          62.6959   84.6042    6.7249 H       1  UNL1        0.1189
     18 H          61.5878   84.9593    5.5331 H       1  UNL1        0.1189
     19 C          61.8931   86.0785   11.9386 C.3     1  UNL1        0.1391
     20 C          62.8037   84.9068   11.7199 C.ar    1  UNL1        0.0102
     21 C          63.2841   84.5781   10.3374 C.ar    1  UNL1       -0.0017
     22 C          64.1947   83.4063   10.1187 C.ar    1  UNL1       -0.0002
     23 C          64.6248   82.5632   11.2824 C.ar    1  UNL1        0.0007
     24 C          64.1444   82.8919   12.6649 C.ar    1  UNL1        0.0100
     25 C          63.2338   84.0636   12.8836 C.ar    1  UNL1        0.0663
     26 C          62.7534   84.3923   14.2660 C.1     1  UNL1        0.1002
     27 N          62.2729   84.7210   15.6485 N.1     1  UNL1       -0.1908
@<TRIPOS>BOND
     1     1     2    1
     2     2     3   ar
     3     3     4    2
     4     3     5   ar
     5     5     6   ar
     6     6    10    1
     7    10    11    1
     8    11    12    1
     9    12    13    1
    10    13    14    1
    11    14    15    1
    12    14    16    1
    13     6     7   ar
    14     7    19    1
    15    19    20    1
    16    20    21   ar
    17    21    22   ar
    18    22    23   ar
    19    23    24   ar
    20    24    25   ar
    21    25    26    1
    22    26    27    3
    23     7     8   ar
    24     8     9    2
    25     8     2   ar
    26    16    10    1
    27    25    20   ar
    28    15    17    1
    29    15    18    1
@<TRIPOS>MOLECULE
*****
 27 29 0 0 0
SMALL
GASTEIGER

@<TRIPOS>ATOM
      1 C          60.9987   87.5193   10.3105 C.3     1  UNL1        0.1382
      2 N          61.8926   88.3805   11.1527 N.ar    1  UNL1       -0.2466
      3 C          61.9134   89.8661   10.9472 C.ar    1  UNL1        0.2671
      4 O          61.0404   90.4907    9.8995 O.2     1  UNL1       -0.2668
      5 C          62.8073   90.7273   11.7894 C.ar    1  UNL1        0.0935
      6 C          63.6804   90.1028   12.8372 C.ar    1  UNL1        0.1208
      7 N          63.6595   88.6172   13.0427 N.ar    1  UNL1       -0.2651
      8 C          62.7656   87.7560   12.2005 C.ar    1  UNL1        0.3350
      9 O          62.7448   86.2702   12.4060 O.2     1  UNL1       -0.2461
     10 N          64.5743   90.9640   13.6794 N.pl3   1  UNL1       -0.2930
     11 C          65.9061   91.4061   13.1496 C.3     1  UNL1        0.0922
     12 C          66.8000   92.2673   13.9918 C.3     1  UNL1        0.0229
     13 C          66.3620   92.6864   15.3638 C.3     1  UNL1        0.0190
     14 C          65.0302   92.2444   15.8936 C.3     1  UNL1        0.0709
     15 N          64.5921   92.6635   17.2657 N.3     1  UNL1       -0.3208
     16 C          64.1363   91.3832   15.0514 C.3     1  UNL1        0.1075
     17 H          63.6690   92.2761   17.4610 H       1  UNL1        0.1189
     18 H          64.5506   93.6815   17.3132 H       1  UNL1        0.1189
     19 C          64.5326   87.9926   14.0904 C.3     1  UNL1        0.1391
     20 C          63.9293   87.4959   15.3708 C.ar    1  UNL1        0.0102
     21 C          63.3544   88.4696   16.3563 C.ar    1  UNL1       -0.0017
     22 C          62.7511   87.9729   17.6367 C.ar    1  UNL1       -0.0002
     23 C          62.7228   86.5024   17.9315 C.ar    1  UNL1        0.0007
     24 C          63.2977   85.5287   16.9459 C.ar    1  UNL1        0.0100
     25 C          63.9009   86.0254   15.6656 C.ar    1  UNL1        0.0663
     26 C          64.4758   85.0516   14.6801 C.1     1  UNL1        0.1002
     27 N          65.0507   84.0779   13.6945 N.1     1  UNL1       -0.1908
@<TRIPOS>BOND
     1     1     2    1
     2     2     3   ar
     3     3     4    2
     4     3     5   ar
     5     5     6   ar
     6     6    10    1
     7    10    11    1
     8    11    12    1
     9    12    13    1
    10    13    14    1
    11    14    15    1
    12    14    16    1
    13     6     7   ar
    14     7    19    1
    15    19    20    1
    16    20    21   ar
    17    21    22   ar
    18    22    23   ar
    19    23    24   ar
    20    24    25   ar
    21    25    26    1
    22    26    27    3
    23     7     8   ar
    24     8     9    2
    25     8     2   ar
    26    16    10    1
    27    25    20   ar
    28    15    17    1
    29    15    18    1
@<TRIPOS>MOLECULE
*****
 27 29 0 0 0
SMALL
GASTEIGER

@<TRIPOS>ATOM
      1 C          59.2922   88.6224    7.4141 C.3     1  UNL1        0.1382
      2 N          60.0972   88.0503    8.5431 N.ar    1  UNL1       -0.2466
      3 C          60.5218   86.6121    8.5080 C.ar    1  UNL1        0.2671
      4 O          60.1414   85.7459    7.3439 O.2     1  UNL1       -0.2668
      5 C          61.3267   86.0400    9.6371 C.ar    1  UNL1        0.0935
      6 C          61.7071   86.9061   10.8012 C.ar    1  UNL1        0.1208
      7 N          61.2825   88.3443   10.8363 N.ar    1  UNL1       -0.2651
      8 C          60.4775   88.9164    9.7072 C.ar    1  UNL1        0.3350
      9 O          60.0529   90.3547    9.7423 O.2     1  UNL1       -0.2461
     10 N          62.5120   86.3340   11.9303 N.pl3   1  UNL1       -0.2930
     11 C          63.3805   87.2307   12.7619 C.3     1  UNL1        0.0922
     12 C          64.1854   86.6585   13.8909 C.3     1  UNL1        0.0229
     13 C          64.1219   85.1897   14.1884 C.3     1  UNL1        0.0190
     14 C          63.2534   84.2930   13.3567 C.3     1  UNL1        0.0709
     15 N          63.1898   82.8241   13.6541 N.3     1  UNL1       -0.3208
     16 C          62.4485   84.8651   12.2277 C.3     1  UNL1        0.1075
     17 H          62.5560   82.3711   12.9958 H       1  UNL1        0.1189
     18 H          62.8491   82.6842   14.6053 H       1  UNL1        0.1189
     19 C          61.6628   89.2104   12.0004 C.3     1  UNL1        0.1391
     20 C          62.7628   90.2200   11.8563 C.ar    1  UNL1        0.0102
     21 C          63.1057   90.7674   10.5025 C.ar    1  UNL1       -0.0017
     22 C          64.2057   91.7770   10.3584 C.ar    1  UNL1       -0.0002
     23 C          64.9628   92.2392   11.5681 C.ar    1  UNL1        0.0007
     24 C          64.6198   91.6917   12.9219 C.ar    1  UNL1        0.0100
     25 C          63.5199   90.6822   13.0660 C.ar    1  UNL1        0.0663
     26 C          63.1769   90.1347   14.4198 C.1     1  UNL1        0.1002
     27 N          62.8340   89.5873   15.7735 N.1     1  UNL1       -0.1908
@<TRIPOS>BOND
     1     1     2    1
     2     2     3   ar
     3     3     4    2
     4     3     5   ar
     5     5     6   ar
     6     6    10    1
     7    10    11    1
     8    11    12    1
     9    12    13    1
    10    13    14    1
    11    14    15    1
    12    14    16    1
    13     6     7   ar
    14     7    19    1
    15    19    20    1
    16    20    21   ar
    17    21    22   ar
    18    22    23   ar
    19    23    24   ar
    20    24    25   ar
    21    25    26    1
    22    26    27    3
    23     7     8   ar
    24     8     9    2
    25     8     2   ar
    26    16    10    1
    27    25    20   ar
    28    15    17    1
    29    15    18    1
@<TRIPOS>MOLECULE
*****
 27 29 0 0 0
SMALL
GASTEIGER

@<TRIPOS>ATOM
      1 C          64.5958   89.3344   14.0933 C.3     1  UNL1        0.1382
      2 N          63.6724   89.0371   12.9492 N.ar    1  UNL1       -0.2466
      3 C          63.2598   90.1347   12.0137 C.ar    1  UNL1        0.2671
      4 O          63.7706   91.5296   12.2223 O.2     1  UNL1       -0.2668
      5 C          62.3364   89.8374   10.8696 C.ar    1  UNL1        0.0935
      6 C          61.8256   88.4426   10.6610 C.ar    1  UNL1        0.1208
      7 N          62.2382   87.3451   11.5964 N.ar    1  UNL1       -0.2651
      8 C          63.1616   87.6423   12.7406 C.ar    1  UNL1        0.3350
      9 O          63.5742   86.5447   13.6761 O.2     1  UNL1       -0.2461
     10 N          60.9023   88.1453    9.5169 N.pl3   1  UNL1       -0.2930
     11 C          60.3651   86.7577    9.3276 C.3     1  UNL1        0.0922
     12 C          59.4417   86.4604    8.1835 C.3     1  UNL1        0.0229
     13 C          59.0555   87.5508    7.2286 C.3     1  UNL1        0.0190
     14 C          59.5926   88.9384    7.4179 C.3     1  UNL1        0.0709
     15 N          59.2064   90.0289    6.4630 N.3     1  UNL1       -0.3208
     16 C          60.5160   89.2357    8.5620 C.3     1  UNL1        0.1075
     17 H          59.6594   90.8998    6.7401 H       1  UNL1        0.1189
     18 H          58.1940   90.1522    6.4792 H       1  UNL1        0.1189
     19 C          61.7274   85.9502   11.3878 C.3     1  UNL1        0.1391
     20 C          62.6489   84.7798   11.5643 C.ar    1  UNL1        0.0102
     21 C          62.8386   84.1728   12.9228 C.ar    1  UNL1       -0.0017
     22 C          63.7601   83.0024   13.0993 C.ar    1  UNL1       -0.0002
     23 C          64.4918   82.4391   11.9172 C.ar    1  UNL1        0.0007
     24 C          64.3020   83.0460   10.5587 C.ar    1  UNL1        0.0100
     25 C          63.3806   84.2164   10.3822 C.ar    1  UNL1        0.0663
     26 C          63.1908   84.8234    9.0237 C.1     1  UNL1        0.1002
     27 N          63.0010   85.4304    7.6652 N.1     1  UNL1       -0.1908
@<TRIPOS>BOND
     1     1     2    1
     2     2     3   ar
     3     3     4    2
     4     3     5   ar
     5     5     6   ar
     6     6    10    1
     7    10    11    1
     8    11    12    1
     9    12    13    1
    10    13    14    1
    11    14    15    1
    12    14    16    1
    13     6     7   ar
    14     7    19    1
    15    19    20    1
    16    20    21   ar
    17    21    22   ar
    18    22    23   ar
    19    23    24   ar
    20    24    25   ar
    21    25    26    1
    22    26    27    3
    23     7     8   ar
    24     8     9    2
    25     8     2   ar
    26    16    10    1
    27    25    20   ar
    28    15    17    1
    29    15    18    1
@<TRIPOS>MOLECULE
*****
 27 29 0 0 0
SMALL
GASTEIGER

@<TRIPOS>ATOM
      1 C          61.1053   87.4866   10.5672 C.3     1  UNL1        0.1382
      2 N          62.0257   88.5206   11.1450 N.ar    1  UNL1       -0.2466
      3 C          62.0880   89.8915   10.5394 C.ar    1  UNL1        0.2671
      4 O          61.2299   90.2284    9.3560 O.2     1  UNL1       -0.2668
      5 C          63.0083   90.9255   11.1171 C.ar    1  UNL1        0.0935
      6 C          63.8663   90.5887   12.3004 C.ar    1  UNL1        0.1208
      7 N          63.8040   89.2178   12.9060 N.ar    1  UNL1       -0.2651
      8 C          62.8837   88.1838   12.3283 C.ar    1  UNL1        0.3350
      9 O          62.8214   86.8128   12.9339 O.2     1  UNL1       -0.2461
     10 N          64.7867   91.6227   12.8782 N.pl3   1  UNL1       -0.2930
     11 C          65.4327   92.6367   11.9814 C.3     1  UNL1        0.0922
     12 C          66.3530   93.6708   12.5592 C.3     1  UNL1        0.0229
     13 C          66.6273   93.6907   14.0337 C.3     1  UNL1        0.0190
     14 C          65.9813   92.6767   14.9305 C.3     1  UNL1        0.0709
     15 N          66.2556   92.6966   16.4051 N.3     1  UNL1       -0.3208
     16 C          65.0610   91.6427   14.3527 C.3     1  UNL1        0.1075
     17 H          65.7379   91.9431   16.8574 H       1  UNL1        0.1189
     18 H          65.9609   93.5925   16.7937 H       1  UNL1        0.1189
     19 C          64.6621   88.8809   14.0894 C.3     1  UNL1        0.1391
     20 C          64.1334   87.9819   15.1675 C.ar    1  UNL1        0.0102
     21 C          64.2867   86.4947   15.0460 C.ar    1  UNL1       -0.0017
     22 C          63.7579   85.5957   16.1242 C.ar    1  UNL1       -0.0002
     23 C          63.0760   86.1840   17.3237 C.ar    1  UNL1        0.0007
     24 C          62.9228   87.6712   17.4452 C.ar    1  UNL1        0.0100
     25 C          63.4514   88.5701   16.3671 C.ar    1  UNL1        0.0663
     26 C          63.2982   90.0573   16.4885 C.1     1  UNL1        0.1002
     27 N          63.1449   91.5445   16.6100 N.1     1  UNL1       -0.1908
@<TRIPOS>BOND
     1     1     2    1
     2     2     3   ar
     3     3     4    2
     4     3     5   ar
     5     5     6   ar
     6     6    10    1
     7    10    11    1
     8    11    12    1
     9    12    13    1
    10    13    14    1
    11    14    15    1
    12    14    16    1
    13     6     7   ar
    14     7    19    1
    15    19    20    1
    16    20    21   ar
    17    21    22   ar
    18    22    23   ar
    19    23    24   ar
    20    24    25   ar
    21    25    26    1
    22    26    27    3
    23     7     8   ar
    24     8     9    2
    25     8     2   ar
    26    16    10    1
    27    25    20   ar
    28    15    17    1
    29    15    18    1
@<TRIPOS>MOLECULE
*****
 27 29 0 0 0
SMALL
GASTEIGER

@<TRIPOS>ATOM
      1 C          64.5474   89.4118   14.3614 C.3     1  UNL1        0.1382
      2 N          63.7465   88.8802   13.2098 N.ar    1  UNL1       -0.2466
      3 C          63.1737   89.8249   12.1952 C.ar    1  UNL1        0.2671
      4 O          63.4019   91.3011   12.3320 O.2     1  UNL1       -0.2668
      5 C          62.3729   89.2933   11.0436 C.ar    1  UNL1        0.0935
      6 C          62.1447   87.8171   10.9068 C.ar    1  UNL1        0.1208
      7 N          62.7174   86.8725   11.9214 N.ar    1  UNL1       -0.2651
      8 C          63.5183   87.4041   13.0730 C.ar    1  UNL1        0.3350
      9 O          64.0911   86.4593   14.0877 O.2     1  UNL1       -0.2461
     10 N          61.3438   87.2856    9.7552 N.pl3   1  UNL1       -0.2930
     11 C          59.9203   87.7197    9.5679 C.3     1  UNL1        0.0922
     12 C          59.1195   87.1882    8.4163 C.3     1  UNL1        0.0229
     13 C          59.7420   86.2225    7.4522 C.3     1  UNL1        0.0190
     14 C          61.1655   85.7883    7.6395 C.3     1  UNL1        0.0709
     15 N          61.7882   84.8225    6.6753 N.3     1  UNL1       -0.3208
     16 C          61.9664   86.3199    8.7910 C.3     1  UNL1        0.1075
     17 H          62.7527   84.6397    6.9523 H       1  UNL1        0.1189
     18 H          61.7739   85.2221    5.7369 H       1  UNL1        0.1189
     19 C          62.4893   85.3962   11.7846 C.3     1  UNL1        0.1391
     20 C          62.7118   84.4909   12.9596 C.ar    1  UNL1        0.0102
     21 C          62.0881   84.8149   14.2848 C.ar    1  UNL1       -0.0017
     22 C          62.3106   83.9095   15.4599 C.ar    1  UNL1       -0.0002
     23 C          63.1567   82.6801   15.3098 C.ar    1  UNL1        0.0007
     24 C          63.7804   82.3560   13.9846 C.ar    1  UNL1        0.0100
     25 C          63.5579   83.2614   12.8096 C.ar    1  UNL1        0.0663
     26 C          64.1816   82.9373   11.4844 C.1     1  UNL1        0.1002
     27 N          64.8053   82.6133   10.1592 N.1     1  UNL1       -0.1908
@<TRIPOS>BOND
     1     1     2    1
     2     2     3   ar
     3     3     4    2
     4     3     5   ar
     5     5     6   ar
     6     6    10    1
     7    10    11    1
     8    11    12    1
     9    12    13    1
    10    13    14    1
    11    14    15    1
    12    14    16    1
    13     6     7   ar
    14     7    19    1
    15    19    20    1
    16    20    21   ar
    17    21    22   ar
    18    22    23   ar
    19    23    24   ar
    20    24    25   ar
    21    25    26    1
    22    26    27    3
    23     7     8   ar
    24     8     9    2
    25     8     2   ar
    26    16    10    1
    27    25    20   ar
    28    15    17    1
    29    15    18    1
@<TRIPOS>MOLECULE
*****
 27 29 0 0 0
SMALL
GASTEIGER

@<TRIPOS>ATOM
      1 C          59.4869   86.8144    8.0469 C.3     1  UNL1        0.1382
      2 N          60.4025   87.4559    9.0470 N.ar    1  UNL1       -0.2466
      3 C          60.5780   88.9456    9.0557 C.ar    1  UNL1        0.2671
      4 O          59.8378   89.7938    8.0643 O.2     1  UNL1       -0.2668
      5 C          61.4936   89.5871   10.0557 C.ar    1  UNL1        0.0935
      6 C          62.2337   88.7389   11.0471 C.ar    1  UNL1        0.1208
      7 N          62.0583   87.2493   11.0383 N.ar    1  UNL1       -0.2651
      8 C          61.1427   86.6078   10.0383 C.ar    1  UNL1        0.3350
      9 O          60.9672   85.1180   10.0296 O.2     1  UNL1       -0.2461
     10 N          63.1494   89.3804   12.0471 N.pl3   1  UNL1       -0.2930
     11 C          63.5784   88.6202   13.2669 C.3     1  UNL1        0.0922
     12 C          64.4940   89.2617   14.2670 C.3     1  UNL1        0.0229
     13 C          64.9806   90.6635   14.0472 C.3     1  UNL1        0.0190
     14 C          64.5516   91.4237   12.8274 C.3     1  UNL1        0.0709
     15 N          65.0382   92.8255   12.6076 N.3     1  UNL1       -0.3208
     16 C          63.6360   90.7822   11.8274 C.3     1  UNL1        0.1075
     17 H          64.6508   93.1871   11.7361 H       1  UNL1        0.1189
     18 H          66.0568   92.8272   12.5535 H       1  UNL1        0.1189
     19 C          62.7984   86.4011   12.0297 C.3     1  UNL1        0.1391
     20 C          63.1076   84.9689   11.7084 C.ar    1  UNL1        0.0102
     21 C          63.6084   84.5977   10.3440 C.ar    1  UNL1       -0.0017
     22 C          63.9176   83.1654   10.0227 C.ar    1  UNL1       -0.0002
     23 C          63.7261   82.1046   11.0656 C.ar    1  UNL1        0.0007
     24 C          63.2253   82.4758   12.4300 C.ar    1  UNL1        0.0100
     25 C          62.9161   83.9080   12.7514 C.ar    1  UNL1        0.0663
     26 C          62.4154   84.2792   14.1157 C.1     1  UNL1        0.1002
     27 N          61.9147   84.6505   15.4801 N.1     1  UNL1       -0.1908
@<TRIPOS>BOND
     1     1     2    1
     2     2     3   ar
     3     3     4    2
     4     3     5   ar
     5     5     6   ar
     6     6    10    1
     7    10    11    1
     8    11    12    1
     9    12    13    1
    10    13    14    1
    11    14    15    1
    12    14    16    1
    13     6     7   ar
    14     7    19    1
    15    19    20    1
    16    20    21   ar
    17    21    22   ar
    18    22    23   ar
    19    23    24   ar
    20    24    25   ar
    21    25    26    1
    22    26    27    3
    23     7     8   ar
    24     8     9    2
    25     8     2   ar
    26    16    10    1
    27    25    20   ar
    28    15    17    1
    29    15    18    1
@<TRIPOS>MOLECULE
*****
 27 29 0 0 0
SMALL
GASTEIGER

@<TRIPOS>ATOM
      1 C          63.3299   81.2038   11.1306 C.3     1  UNL1        0.1382
      2 N          63.2745   82.3040   12.1486 N.ar    1  UNL1       -0.2466
      3 C          63.1561   81.9717   13.6065 C.ar    1  UNL1        0.2671
      4 O          63.0932   80.5390   14.0465 O.2     1  UNL1       -0.2668
      5 C          63.1007   83.0720   14.6245 C.ar    1  UNL1        0.0935
      6 C          63.1636   84.5046   14.1846 C.ar    1  UNL1        0.1208
      7 N          63.2819   84.8370   12.7267 N.ar    1  UNL1       -0.2651
      8 C          63.3374   83.7367   11.7087 C.ar    1  UNL1        0.3350
      9 O          63.4557   84.0691   10.2508 O.2     1  UNL1       -0.2461
     10 N          63.1081   85.6049   15.2026 N.pl3   1  UNL1       -0.2930
     11 C          62.4925   85.3525   16.5469 C.3     1  UNL1        0.0922
     12 C          62.4370   86.4528   17.5649 C.3     1  UNL1        0.0229
     13 C          62.9972   87.8054   17.2386 C.3     1  UNL1        0.0190
     14 C          63.6129   88.0578   15.8943 C.3     1  UNL1        0.0709
     15 N          64.1731   89.4105   15.5679 N.3     1  UNL1       -0.3208
     16 C          63.6683   86.9575   14.8763 C.3     1  UNL1        0.1075
     17 H          64.5485   89.4032   14.6195 H       1  UNL1        0.1189
     18 H          64.9179   89.6380   16.2266 H       1  UNL1        0.1189
     19 C          63.3448   86.2697   12.2868 C.3     1  UNL1        0.1391
     20 C          62.3162   86.8085   11.3373 C.ar    1  UNL1        0.0102
     21 C          61.4645   85.8656   10.5400 C.ar    1  UNL1       -0.0017
     22 C          60.4359   86.4046    9.5905 C.ar    1  UNL1       -0.0002
     23 C          60.2589   87.8863    9.4383 C.ar    1  UNL1        0.0007
     24 C          61.1106   88.8291   10.2356 C.ar    1  UNL1        0.0100
     25 C          62.1392   88.2903   11.1850 C.ar    1  UNL1        0.0663
     26 C          62.9909   89.2331   11.9823 C.1     1  UNL1        0.1002
     27 N          63.8426   90.1760   12.7796 N.1     1  UNL1       -0.1908
@<TRIPOS>BOND
     1     1     2    1
     2     2     3   ar
     3     3     4    2
     4     3     5   ar
     5     5     6   ar
     6     6    10    1
     7    10    11    1
     8    11    12    1
     9    12    13    1
    10    13    14    1
    11    14    15    1
    12    14    16    1
    13     6     7   ar
    14     7    19    1
    15    19    20    1
    16    20    21   ar
    17    21    22   ar
    18    22    23   ar
    19    23    24   ar
    20    24    25   ar
    21    25    26    1
    22    26    27    3
    23     7     8   ar
    24     8     9    2
    25     8     2   ar
    26    16    10    1
    27    25    20   ar
    28    15    17    1
    29    15    18    1
