@<TRIPOS>MOLECULE
*****
 37 42 0 0 0
SMALL
GASTEIGER

@<TRIPOS>ATOM
      1 C          63.1277   96.1680   -3.1981 C.ar    1  UNL1        0.0496
      2 C          61.6363   96.2689   -3.0732 C.ar    1  UNL1        0.0178
      3 C          60.9301   95.5812   -1.9425 C.ar    1  UNL1        0.0383
      4 C          61.7153   94.7925   -0.9368 C.ar    1  UNL1        0.1410
      5 C          63.2067   94.6916   -1.0617 C.ar    1  UNL1        0.0700
      6 C          63.9129   95.3794   -2.1924 C.ar    1  UNL1        0.0205
      7 C          63.9920   93.9030   -0.0560 C.2     1  UNL1        0.1795
      8 O          65.4833   93.8021   -0.1809 O.2     1  UNL1       -0.2911
      9 C          63.2858   93.2153    1.0747 C.3     1  UNL1        0.1092
     10 C          61.7944   93.3162    1.1996 C.3     1  UNL1        0.1436
     11 C          62.5796   92.5276    2.2053 C.3     1  UNL1        0.0620
     12 C          61.8735   91.8398    3.3359 C.3     1  UNL1        0.0985
     13 N          60.3821   91.9407    3.4609 N.am    1  UNL1       -0.2640
     14 C          59.6760   91.2530    4.5916 C.2     1  UNL1        0.3039
     15 O          58.1846   91.3539    4.7165 O.2     1  UNL1       -0.2526
     16 N          60.4612   90.4643    5.5972 N.am    1  UNL1       -0.2901
     17 C          59.5969   92.7293    2.4552 C.3     1  UNL1        0.0985
     18 C          60.3030   93.4171    1.3245 C.3     1  UNL1        0.0620
     19 O          61.0092   94.1048    0.1938 O.3     1  UNL1       -0.4819
     20 H          61.4400   90.3981    5.5152 H       1  UNL1        0.1509
     21 C          59.7550   89.7766    6.7279 C.3     1  UNL1        0.0774
     22 C          58.4821   89.3814    7.4159 C.3     1  UNL1        0.0259
     23 C          59.8049   88.9805    7.9983 C.3     1  UNL1        0.0420
     24 C          60.5975   88.2895    9.0680 C.ar    1  UNL1       -0.0208
     25 C          60.4809   86.8048    9.2470 C.ar    1  UNL1       -0.0042
     26 C          61.2735   86.1138   10.3167 C.ar    1  UNL1       -0.0003
     27 C          62.1828   86.9075   11.2074 C.ar    1  UNL1       -0.0000
     28 C          62.2994   88.3922   11.0284 C.ar    1  UNL1       -0.0003
     29 C          61.5068   89.0832    9.9586 C.ar    1  UNL1       -0.0042
     30 N          63.8338   96.8557   -4.3287 N.pl3   1  UNL1       -0.2981
     31 H          63.8202   97.8381   -4.3927 H       1  UNL1        0.1536
     32 C          62.5139   94.5818   -6.2617 C.3     1  UNL1        0.1552
     33 N          63.9540   95.0015   -6.2504 N.ar    1  UNL1       -0.2356
     34 N          65.0401   94.4498   -7.1255 N.ar    1  UNL1       -0.1665
     35 C          66.3181   95.1540   -6.7778 C.ar    1  UNL1        0.1230
     36 C          66.0218   96.1410   -5.6878 C.ar    1  UNL1        0.0565
     37 C          64.5607   96.0468   -5.3618 C.ar    1  UNL1        0.1307
@<TRIPOS>BOND
     1    32    33    1
     2    33    34   ar
     3    34    35   ar
     4    35    36   ar
     5    36    37   ar
     6    37    30    1
     7    30     1    1
     8     1     2   ar
     9     2     3   ar
    10     3     4   ar
    11     4     5   ar
    12     5     6   ar
    13     5     7    1
    14     7     8    2
    15     7     9    1
    16     9    10    1
    17    10    11    1
    18    11    12    1
    19    12    13    1
    20    13    14   am
    21    14    15    2
    22    14    16   am
    23    21    16    1
    24    21    22    1
    25    22    23    1
    26    23    24    1
    27    24    25   ar
    28    25    26   ar
    29    26    27   ar
    30    27    28   ar
    31    28    29   ar
    32    13    17    1
    33    17    18    1
    34    10    19    1
    35    37    33   ar
    36     6     1   ar
    37    18    10    1
    38    19     4    1
    39    23    21    1
    40    29    24   ar
    41    30    31    1
    42    16    20    1
@<TRIPOS>MOLECULE
*****
 37 42 0 0 0
SMALL
GASTEIGER

@<TRIPOS>ATOM
      1 C          60.2423   95.7273   -2.0222 C.ar    1  UNL1        0.0496
      2 C          58.8230   95.5834   -1.5587 C.ar    1  UNL1        0.0178
      3 C          58.5149   94.7963   -0.3196 C.ar    1  UNL1        0.0383
      4 C          59.6261   94.1530    0.4561 C.ar    1  UNL1        0.1410
      5 C          61.0454   94.2969   -0.0075 C.ar    1  UNL1        0.0700
      6 C          61.3535   95.0841   -1.2467 C.ar    1  UNL1        0.0205
      7 C          62.1565   93.6537    0.7681 C.2     1  UNL1        0.1795
      8 O          63.5758   93.7975    0.3045 O.2     1  UNL1       -0.2911
      9 C          61.8484   92.8665    2.0073 C.3     1  UNL1        0.1092
     10 C          60.4291   92.7226    2.4708 C.3     1  UNL1        0.1436
     11 C          61.5402   92.0794    3.2464 C.3     1  UNL1        0.0620
     12 C          61.2321   91.2923    4.4855 C.3     1  UNL1        0.0985
     13 N          59.8128   91.1484    4.9491 N.am    1  UNL1       -0.2640
     14 C          59.5047   90.3613    6.1882 C.2     1  UNL1        0.3039
     15 O          58.0854   90.2174    6.6518 O.2     1  UNL1       -0.2526
     16 N          60.6158   89.7180    6.9638 N.am    1  UNL1       -0.2901
     17 C          58.7016   91.7916    4.1735 C.3     1  UNL1        0.0985
     18 C          59.0098   92.5787    2.9344 C.3     1  UNL1        0.0620
     19 O          59.3179   93.3659    1.6952 O.3     1  UNL1       -0.4819
     20 H          61.5473   89.8125    6.6596 H       1  UNL1        0.1509
     21 C          60.3077   88.9309    8.2030 C.3     1  UNL1        0.0774
     22 C          59.4571   88.6987    9.4165 C.3     1  UNL1        0.0259
     23 C          60.6246   87.7997    9.1358 C.3     1  UNL1        0.0420
     24 C          61.4816   86.6277    9.5123 C.ar    1  UNL1       -0.0208
     25 C          61.3864   86.0405   10.8893 C.ar    1  UNL1       -0.0042
     26 C          62.2435   84.8685   11.2658 C.ar    1  UNL1       -0.0003
     27 C          63.1958   84.2836   10.2652 C.ar    1  UNL1       -0.0000
     28 C          63.2910   84.8708    8.8882 C.ar    1  UNL1       -0.0003
     29 C          62.4339   86.0428    8.5118 C.ar    1  UNL1       -0.0042
     30 N          60.5505   96.5144   -3.2614 N.pl3   1  UNL1       -0.2981
     31 H          60.4570   97.4944   -3.2579 H       1  UNL1        0.1536
     32 C          58.7488   95.9976   -5.9328 C.3     1  UNL1        0.1552
     33 N          60.1730   95.5707   -5.7337 N.ar    1  UNL1       -0.2356
     34 N          61.0190   94.8314   -6.7275 N.ar    1  UNL1       -0.1665
     35 C          62.3701   94.6121   -6.1137 C.ar    1  UNL1        0.1230
     36 C          62.3590   95.2158   -4.7406 C.ar    1  UNL1        0.0565
     37 C          61.0011   95.8083   -4.5057 C.ar    1  UNL1        0.1307
@<TRIPOS>BOND
     1    32    33    1
     2    33    34   ar
     3    34    35   ar
     4    35    36   ar
     5    36    37   ar
     6    37    30    1
     7    30     1    1
     8     1     2   ar
     9     2     3   ar
    10     3     4   ar
    11     4     5   ar
    12     5     6   ar
    13     5     7    1
    14     7     8    2
    15     7     9    1
    16     9    10    1
    17    10    11    1
    18    11    12    1
    19    12    13    1
    20    13    14   am
    21    14    15    2
    22    14    16   am
    23    21    16    1
    24    21    22    1
    25    22    23    1
    26    23    24    1
    27    24    25   ar
    28    25    26   ar
    29    26    27   ar
    30    27    28   ar
    31    28    29   ar
    32    13    17    1
    33    17    18    1
    34    10    19    1
    35    37    33   ar
    36     6     1   ar
    37    18    10    1
    38    19     4    1
    39    23    21    1
    40    29    24   ar
    41    30    31    1
    42    16    20    1
