@<TRIPOS>MOLECULE
*****
 31 32 0 0 0
SMALL
GASTEIGER

@<TRIPOS>ATOM
      1 N          60.7398   88.0302    9.4867 N.3     1  UNL1       -0.2699
      2 C          59.0429   86.9698    7.8296 C.3     1  UNL1        0.0188
      3 C          59.9088   88.1233    8.2415 C.3     1  UNL1        0.0722
      4 C          60.7664   86.7557   10.2772 C.3     1  UNL1        0.0920
      5 C          61.9711   85.8637   10.2216 C.3     1  UNL1        0.0907
      6 C          62.6882   85.6519    8.9213 C.3     1  UNL1        0.0228
      7 N          62.4587   85.1835   11.4665 N.am    1  UNL1       -0.2709
      8 C          63.0557   85.9936   12.5789 C.2     1  UNL1        0.4020
      9 O          63.1651   87.4837   12.4465 O.2     1  UNL1       -0.2264
     10 H          62.3870   84.2055   11.5534 H       1  UNL1        0.1527
     11 O          63.5434   85.3135   13.8238 O.3     1  UNL1       -0.4291
     12 C          64.2430   83.9899   13.7304 C.3     1  UNL1        0.2447
     13 C          63.4477   82.7182   13.7494 C.ar    1  UNL1        0.0714
     14 C          63.8553   81.4142   13.1303 C.ar    1  UNL1        0.1053
     15 N          62.7647   80.4174   13.3891 N.ar    1  UNL1       -0.2350
     16 C          61.6832   81.1053   14.1681 C.ar    1  UNL1        0.1343
     17 S          62.1053   82.5274   14.3908 S.2     1  UNL1       -0.0652
     18 C          61.5444   89.2118    9.9415 C.3     1  UNL1        0.0920
     19 C          61.0700   90.0420   11.0973 C.3     1  UNL1        0.0907
     20 C          59.6576   90.5460   11.1289 C.3     1  UNL1        0.0228
     21 N          62.0081   90.3682   12.2213 N.am    1  UNL1       -0.2709
     22 C          63.2387   91.1847   11.9583 C.2     1  UNL1        0.4020
     23 O          63.5311   91.6749   10.5711 O.2     1  UNL1       -0.2264
     24 H          61.8162   90.0465   13.1318 H       1  UNL1        0.1527
     25 O          64.1768   91.5109   13.0823 O.3     1  UNL1       -0.4274
     26 C          65.5194   92.1117   12.7882 C.3     1  UNL1        0.2621
     27 C          66.4908   92.3596   13.9040 C.ar    1  UNL1        0.1323
     28 N          67.9660   92.5864   13.7547 N.ar    1  UNL1       -0.2374
     29 C          68.5444   92.7912   15.1234 C.ar    1  UNL1        0.1062
     30 C          67.4267   92.6908   16.1187 C.ar    1  UNL1        0.0573
     31 S          66.1575   92.4241   15.3651 S.2     1  UNL1       -0.0666
@<TRIPOS>BOND
     1     2     3    1
     2     3     1    1
     3     1     4    1
     4     4     5    1
     5     5     6    1
     6     5     7    1
     7     7     8   am
     8     8     9    2
     9     8    11    1
    10    11    12    1
    11    12    13    1
    12    13    14   ar
    13    14    15   ar
    14    15    16   ar
    15    16    17   ar
    16     1    18    1
    17    18    19    1
    18    19    20    1
    19    19    21    1
    20    21    22   am
    21    22    23    2
    22    22    25    1
    23    25    26    1
    24    26    27    1
    25    27    28   ar
    26    28    29   ar
    27    29    30   ar
    28    30    31   ar
    29    17    13   ar
    30    31    27   ar
    31     7    10    1
    32    21    24    1
@<TRIPOS>MOLECULE
*****
 31 32 0 0 0
SMALL
GASTEIGER

@<TRIPOS>ATOM
      1 N          60.5816   87.9402    9.5745 N.3     1  UNL1       -0.2699
      2 C          59.1109   86.7691    7.7813 C.3     1  UNL1        0.0188
      3 C          59.6833   88.0215    8.3761 C.3     1  UNL1        0.0722
      4 C          61.3633   89.1443   10.0090 C.3     1  UNL1        0.0920
      5 C          60.9783   89.8772   11.2599 C.3     1  UNL1        0.0907
      6 C          59.6163   90.4943   11.3784 C.3     1  UNL1        0.0228
      7 N          61.9552   89.9928   12.3923 N.am    1  UNL1       -0.2709
      8 C          63.2111   90.7947   12.2202 C.2     1  UNL1        0.4020
      9 O          63.4902   91.4808   10.9159 O.2     1  UNL1       -0.2264
     10 H          61.7721   89.5425   13.2484 H       1  UNL1        0.1527
     11 O          64.1881   90.9104   13.3526 O.3     1  UNL1       -0.4291
     12 C          65.5146   91.5756   13.1337 C.3     1  UNL1        0.2447
     13 C          66.3169   92.0531   14.3077 C.ar    1  UNL1        0.0714
     14 C          65.7774   92.3889   15.6664 C.ar    1  UNL1        0.1053
     15 N          66.9267   92.8219   16.5275 N.ar    1  UNL1       -0.2350
     16 C          68.1766   92.7538   15.7010 C.ar    1  UNL1        0.1343
     17 S          67.7997   92.2786   14.3291 S.2     1  UNL1       -0.0652
     18 C          60.6982   86.6545   10.3384 C.3     1  UNL1        0.0920
     19 C          61.9331   85.8132   10.2067 C.3     1  UNL1        0.0907
     20 C          62.6433   85.7249    8.8885 C.3     1  UNL1        0.0228
     21 N          62.4577   85.0602   11.3932 N.am    1  UNL1       -0.2709
     22 C          63.1043   85.8013   12.5258 C.2     1  UNL1        0.4020
     23 O          63.2262   87.2953   12.4718 O.2     1  UNL1       -0.2264
     24 H          62.3777   84.0796   11.4286 H       1  UNL1        0.1527
     25 O          63.6289   85.0483   13.7123 O.3     1  UNL1       -0.4274
     26 C          64.2219   83.6824   13.5314 C.3     1  UNL1        0.2621
     27 C          63.3376   82.4711   13.5604 C.ar    1  UNL1        0.1323
     28 N          63.5354   81.2158   12.7635 N.ar    1  UNL1       -0.2374
     29 C          62.4204   80.2713   13.1021 C.ar    1  UNL1        0.1062
     30 C          61.5335   80.9429   14.1083 C.ar    1  UNL1        0.0573
     31 S          62.1004   82.3024   14.3915 S.2     1  UNL1       -0.0666
@<TRIPOS>BOND
     1     2     3    1
     2     3     1    1
     3     1     4    1
     4     4     5    1
     5     5     6    1
     6     5     7    1
     7     7     8   am
     8     8     9    2
     9     8    11    1
    10    11    12    1
    11    12    13    1
    12    13    14   ar
    13    14    15   ar
    14    15    16   ar
    15    16    17   ar
    16     1    18    1
    17    18    19    1
    18    19    20    1
    19    19    21    1
    20    21    22   am
    21    22    23    2
    22    22    25    1
    23    25    26    1
    24    26    27    1
    25    27    28   ar
    26    28    29   ar
    27    29    30   ar
    28    30    31   ar
    29    17    13   ar
    30    31    27   ar
    31     7    10    1
    32    21    24    1
@<TRIPOS>MOLECULE
*****
 31 32 0 0 0
SMALL
GASTEIGER

@<TRIPOS>ATOM
      1 N          60.5792   88.1372    9.4104 N.3     1  UNL1       -0.2699
      2 C          59.0575   86.8570    7.7385 C.3     1  UNL1        0.0188
      3 C          59.6676   88.1402    8.2193 C.3     1  UNL1        0.0722
      4 C          60.6534   86.9281   10.2951 C.3     1  UNL1        0.0920
      5 C          61.8339   86.0067   10.2085 C.3     1  UNL1        0.0907
      6 C          62.5275   85.7978    8.8950 C.3     1  UNL1        0.0228
      7 N          62.3208   85.2942   11.4354 N.am    1  UNL1       -0.2709
      8 C          63.0004   86.0633   12.5292 C.2     1  UNL1        0.4020
      9 O          63.1932   87.5449   12.3962 O.2     1  UNL1       -0.2264
     10 H          62.1942   84.3218   11.5228 H       1  UNL1        0.1527
     11 O          63.4874   85.3509   13.7562 O.3     1  UNL1       -0.4291
     12 C          64.1414   84.0066   13.6331 C.3     1  UNL1        0.2447
     13 C          63.3075   82.7604   13.6716 C.ar    1  UNL1        0.0714
     14 C          62.0860   82.5426   14.5145 C.ar    1  UNL1        0.1053
     15 N          61.5722   81.1608   14.2377 N.ar    1  UNL1       -0.2350
     16 C          62.4762   80.5245   13.2238 C.ar    1  UNL1        0.1343
     17 S          63.5487   81.5132   12.8739 S.2     1  UNL1       -0.0652
     18 C          61.4168   89.3434    9.7168 C.3     1  UNL1        0.0920
     19 C          61.2219   90.0837   11.0068 C.3     1  UNL1        0.0907
     20 C          59.8440   90.4918   11.4364 C.3     1  UNL1        0.0228
     21 N          62.4050   90.4159   11.8669 N.am    1  UNL1       -0.2709
     22 C          63.5080   91.2763   11.3254 C.2     1  UNL1        0.4020
     23 O          63.4279   91.8043    9.9238 O.2     1  UNL1       -0.2264
     24 H          62.4576   90.0693   12.7869 H       1  UNL1        0.1527
     25 O          64.6911   91.6085   12.1856 O.3     1  UNL1       -0.4274
     26 C          65.3841   92.9297   12.0300 C.3     1  UNL1        0.2621
     27 C          66.4130   93.1147   10.9543 C.ar    1  UNL1        0.1323
     28 N          67.4422   92.1069   10.5359 N.ar    1  UNL1       -0.2374
     29 C          68.2587   92.7093    9.4312 C.ar    1  UNL1        0.1062
     30 C          67.7341   94.0895    9.1668 C.ar    1  UNL1        0.0573
     31 S          66.5935   94.3400   10.1081 S.2     1  UNL1       -0.0666
@<TRIPOS>BOND
     1     2     3    1
     2     3     1    1
     3     1     4    1
     4     4     5    1
     5     5     6    1
     6     5     7    1
     7     7     8   am
     8     8     9    2
     9     8    11    1
    10    11    12    1
    11    12    13    1
    12    13    14   ar
    13    14    15   ar
    14    15    16   ar
    15    16    17   ar
    16     1    18    1
    17    18    19    1
    18    19    20    1
    19    19    21    1
    20    21    22   am
    21    22    23    2
    22    22    25    1
    23    25    26    1
    24    26    27    1
    25    27    28   ar
    26    28    29   ar
    27    29    30   ar
    28    30    31   ar
    29    17    13   ar
    30    31    27   ar
    31     7    10    1
    32    21    24    1
@<TRIPOS>MOLECULE
*****
 31 32 0 0 0
SMALL
GASTEIGER

@<TRIPOS>ATOM
      1 N          60.8884   87.7306    9.5518 N.3     1  UNL1       -0.2699
      2 C          59.1754   87.0076    7.7372 C.3     1  UNL1        0.0188
      3 C          59.9920   88.0770    8.4001 C.3     1  UNL1        0.0722
      4 C          60.9256   86.3262   10.0773 C.3     1  UNL1        0.0920
      5 C          62.2256   85.5797   10.1310 C.3     1  UNL1        0.0907
      6 C          63.0361   85.3944    8.8825 C.3     1  UNL1        0.0228
      7 N          62.7150   85.0185   11.4331 N.am    1  UNL1       -0.2709
      8 C          63.3904   83.6796   11.4662 C.2     1  UNL1        0.4020
      9 O          63.5765   82.9019   10.1971 O.2     1  UNL1       -0.2264
     10 H          62.5929   85.5290   12.2661 H       1  UNL1        0.1527
     11 O          63.8798   83.1184   12.7683 O.3     1  UNL1       -0.4291
     12 C          64.6213   83.9966   13.7322 C.3     1  UNL1        0.2447
     13 C          63.8817   84.6857   14.8404 C.ar    1  UNL1        0.0714
     14 C          62.6093   84.2129   15.4786 C.ar    1  UNL1        0.1053
     15 N          62.2259   85.2037   16.5375 N.ar    1  UNL1       -0.2350
     16 C          63.2615   86.2888   16.5539 C.ar    1  UNL1        0.1343
     17 S          64.2848   85.9686   15.5049 S.2     1  UNL1       -0.0652
     18 C          61.7477   88.7888   10.1781 C.3     1  UNL1        0.0920
     19 C          61.1871   89.6699   11.2548 C.3     1  UNL1        0.0907
     20 C          59.8047   89.4229   11.7819 C.3     1  UNL1        0.0228
     21 N          62.0090   90.7979   11.8045 N.am    1  UNL1       -0.2709
     22 C          63.0669   90.5238   12.8319 C.2     1  UNL1        0.4020
     23 O          63.3029   89.1216   13.3097 O.2     1  UNL1       -0.2264
     24 H          61.8540   91.7181   11.4909 H       1  UNL1        0.1527
     25 O          63.8888   91.6518   13.3816 O.3     1  UNL1       -0.4274
     26 C          65.3251   91.8006   12.9752 C.3     1  UNL1        0.2621
     27 C          66.3588   92.1720   13.9967 C.ar    1  UNL1        0.1323
     28 N          67.8120   92.4287   13.7275 N.ar    1  UNL1       -0.2374
     29 C          68.4721   92.7674   15.0311 C.ar    1  UNL1        0.1062
     30 C          67.4270   92.7201   16.1060 C.ar    1  UNL1        0.0573
     31 S          66.1209   92.3522   15.4667 S.2     1  UNL1       -0.0666
@<TRIPOS>BOND
     1     2     3    1
     2     3     1    1
     3     1     4    1
     4     4     5    1
     5     5     6    1
     6     5     7    1
     7     7     8   am
     8     8     9    2
     9     8    11    1
    10    11    12    1
    11    12    13    1
    12    13    14   ar
    13    14    15   ar
    14    15    16   ar
    15    16    17   ar
    16     1    18    1
    17    18    19    1
    18    19    20    1
    19    19    21    1
    20    21    22   am
    21    22    23    2
    22    22    25    1
    23    25    26    1
    24    26    27    1
    25    27    28   ar
    26    28    29   ar
    27    29    30   ar
    28    30    31   ar
    29    17    13   ar
    30    31    27   ar
    31     7    10    1
    32    21    24    1
@<TRIPOS>MOLECULE
*****
 31 32 0 0 0
SMALL
GASTEIGER

@<TRIPOS>ATOM
      1 N          60.5959   88.0536    9.1802 N.3     1  UNL1       -0.2699
      2 C          59.5818   89.3831    7.1917 C.3     1  UNL1        0.0188
      3 C          59.8084   88.0825    7.9039 C.3     1  UNL1        0.0722
      4 C          61.3314   89.2790    9.6356 C.3     1  UNL1        0.0920
      5 C          60.9956   89.9082   10.9552 C.3     1  UNL1        0.0907
      6 C          59.6231   90.4646   11.1931 C.3     1  UNL1        0.0228
      7 N          62.0323   89.9810   12.0369 N.am    1  UNL1       -0.2709
      8 C          63.2871   90.7739   11.8208 C.2     1  UNL1        0.4020
      9 O          63.5053   91.4940   10.5232 O.2     1  UNL1       -0.2264
     10 H          61.8892   89.5084   12.8886 H       1  UNL1        0.1527
     11 O          64.3239   90.8467   12.9024 O.3     1  UNL1       -0.4291
     12 C          63.9036   90.9444   14.3390 C.3     1  UNL1        0.2447
     13 C          63.7172   89.6979   15.1523 C.ar    1  UNL1        0.0714
     14 C          64.1955   88.3248   14.7836 C.ar    1  UNL1        0.1053
     15 N          63.7937   87.3840   15.8806 N.ar    1  UNL1       -0.2350
     16 C          63.0670   88.1755   16.9272 C.ar    1  UNL1        0.1343
     17 S          63.0197   89.6056   16.4771 S.2     1  UNL1       -0.0652
     18 C          60.6478   86.7992   10.0011 C.3     1  UNL1        0.0920
     19 C          61.8330   85.8854    9.9003 C.3     1  UNL1        0.0907
     20 C          62.5713   85.7553    8.6011 C.3     1  UNL1        0.0228
     21 N          62.2800   85.1018   11.0987 N.am    1  UNL1       -0.2709
     22 C          62.9149   85.8059   12.2611 C.2     1  UNL1        0.4020
     23 O          63.1029   87.2936   12.2250 O.2     1  UNL1       -0.2264
     24 H          62.1566   84.1253   11.1224 H       1  UNL1        0.1527
     25 O          63.3619   85.0223   13.4595 O.3     1  UNL1       -0.4274
     26 C          62.4594   83.9825   14.0549 C.3     1  UNL1        0.2621
     27 C          62.4672   82.5837   13.5133 C.ar    1  UNL1        0.1323
     28 N          62.9783   82.1622   12.1675 N.ar    1  UNL1       -0.2374
     29 C          62.7923   80.6788   12.0448 C.ar    1  UNL1        0.1062
     30 C          62.1663   80.1836   13.3148 C.ar    1  UNL1        0.0573
     31 S          61.9655   81.3609   14.2223 S.2     1  UNL1       -0.0666
@<TRIPOS>BOND
     1     2     3    1
     2     3     1    1
     3     1     4    1
     4     4     5    1
     5     5     6    1
     6     5     7    1
     7     7     8   am
     8     8     9    2
     9     8    11    1
    10    11    12    1
    11    12    13    1
    12    13    14   ar
    13    14    15   ar
    14    15    16   ar
    15    16    17   ar
    16     1    18    1
    17    18    19    1
    18    19    20    1
    19    19    21    1
    20    21    22   am
    21    22    23    2
    22    22    25    1
    23    25    26    1
    24    26    27    1
    25    27    28   ar
    26    28    29   ar
    27    29    30   ar
    28    30    31   ar
    29    17    13   ar
    30    31    27   ar
    31     7    10    1
    32    21    24    1
@<TRIPOS>MOLECULE
*****
 31 32 0 0 0
SMALL
GASTEIGER

@<TRIPOS>ATOM
      1 N          61.2539   87.6425    9.8517 N.3     1  UNL1       -0.2699
      2 C          59.4503   87.7511    7.9849 C.3     1  UNL1        0.0188
      3 C          60.1212   87.0071    9.1013 C.3     1  UNL1        0.0722
      4 C          61.3963   89.1356    9.8720 C.3     1  UNL1        0.0920
      5 C          61.1985   89.8905   11.1529 C.3     1  UNL1        0.0907
      6 C          59.9442   89.6960   11.9521 C.3     1  UNL1        0.0228
      7 N          62.2552   90.8400   11.6347 N.am    1  UNL1       -0.2709
      8 C          63.3214   90.3612   12.5748 C.2     1  UNL1        0.4020
      9 O          63.3310   88.9330   13.0332 O.2     1  UNL1       -0.2264
     10 H          62.2488   91.7774   11.3338 H       1  UNL1        0.1527
     11 O          64.3780   91.3107   13.0566 O.3     1  UNL1       -0.4291
     12 C          65.2177   90.9566   14.2481 C.3     1  UNL1        0.2447
     13 C          66.4165   91.7889   14.5947 C.ar    1  UNL1        0.0714
     14 C          67.6708   91.9102   13.7810 C.ar    1  UNL1        0.1053
     15 N          68.6009   92.8422   14.4994 N.ar    1  UNL1       -0.2350
     16 C          67.9216   93.2969   15.7571 C.ar    1  UNL1        0.1343
     17 S          66.5715   92.6458   15.8160 S.2     1  UNL1       -0.0652
     18 C          62.2443   86.7846   10.5821 C.3     1  UNL1        0.0920
     19 C          62.5532   85.4044   10.0825 C.3     1  UNL1        0.0907
     20 C          63.0559   85.2085    8.6829 C.3     1  UNL1        0.0228
     21 N          62.3594   84.2202   10.9825 N.am    1  UNL1       -0.2709
     22 C          63.4255   83.1694   11.0796 C.2     1  UNL1        0.4020
     23 O          64.6854   83.3030   10.2766 O.2     1  UNL1       -0.2264
     24 H          61.5324   84.1325   11.5095 H       1  UNL1        0.1527
     25 O          63.2316   81.9852   11.9795 O.3     1  UNL1       -0.4274
     26 C          63.8566   81.9692   13.3431 C.3     1  UNL1        0.2621
     27 C          63.6726   83.1372   14.2661 C.ar    1  UNL1        0.1323
     28 N          64.6910   84.1989   14.5585 N.ar    1  UNL1       -0.2374
     29 C          64.0856   85.1664   15.5319 C.ar    1  UNL1        0.1062
     30 C          62.6931   84.7025   15.8412 C.ar    1  UNL1        0.0573
     31 S          62.4378   83.4485   15.0588 S.2     1  UNL1       -0.0666
@<TRIPOS>BOND
     1     2     3    1
     2     3     1    1
     3     1     4    1
     4     4     5    1
     5     5     6    1
     6     5     7    1
     7     7     8   am
     8     8     9    2
     9     8    11    1
    10    11    12    1
    11    12    13    1
    12    13    14   ar
    13    14    15   ar
    14    15    16   ar
    15    16    17   ar
    16     1    18    1
    17    18    19    1
    18    19    20    1
    19    19    21    1
    20    21    22   am
    21    22    23    2
    22    22    25    1
    23    25    26    1
    24    26    27    1
    25    27    28   ar
    26    28    29   ar
    27    29    30   ar
    28    30    31   ar
    29    17    13   ar
    30    31    27   ar
    31     7    10    1
    32    21    24    1
@<TRIPOS>MOLECULE
*****
 31 32 0 0 0
SMALL
GASTEIGER

@<TRIPOS>ATOM
      1 N          63.3960   82.3593   13.3383 N.3     1  UNL1       -0.2699
      2 C          62.3974   79.9970   12.9236 C.3     1  UNL1        0.0188
      3 C          63.3101   80.9047   13.6937 C.3     1  UNL1        0.0722
      4 C          64.2837   83.2736   14.1296 C.3     1  UNL1        0.0920
      5 C          63.6849   84.2315   15.1164 C.3     1  UNL1        0.0907
      6 C          62.3978   83.8899   15.8068 C.3     1  UNL1        0.0228
      7 N          64.3732   85.5308   15.4129 N.am    1  UNL1       -0.2709
      8 C          64.1997   86.6994   14.4886 C.2     1  UNL1        0.4020
      9 O          63.3378   86.5686   13.2679 O.2     1  UNL1       -0.2264
     10 H          64.9389   85.6167   16.2141 H       1  UNL1        0.1527
     11 O          64.8879   87.9988   14.7850 O.3     1  UNL1       -0.4291
     12 C          64.1001   89.2749   14.8162 C.3     1  UNL1        0.2447
     13 C          64.1748   90.2307   13.6626 C.ar    1  UNL1        0.0714
     14 C          65.1148   91.3932   13.5402 C.ar    1  UNL1        0.1053
     15 N          64.8434   92.0728   12.2309 N.ar    1  UNL1       -0.2350
     16 C          63.7357   91.3304   11.5440 C.ar    1  UNL1        0.1343
     17 S          63.3225   90.1919   12.4289 S.2     1  UNL1       -0.0652
     18 C          62.5941   82.8998   12.1915 C.3     1  UNL1        0.0920
     19 C          63.2653   83.7124   11.1242 C.3     1  UNL1        0.0907
     20 C          64.4151   83.1346   10.3534 C.3     1  UNL1        0.0228
     21 N          62.7867   85.1027   10.8276 N.am    1  UNL1       -0.2709
     22 C          62.6445   85.5596    9.4060 C.2     1  UNL1        0.4020
     23 O          62.9810   84.6263    8.2810 O.2     1  UNL1       -0.2264
     24 H          62.5659   85.7152   11.5660 H       1  UNL1        0.1527
     25 O          62.1658   86.9499    9.1094 O.3     1  UNL1       -0.4274
     26 C          60.7125   87.2903    9.2577 C.3     1  UNL1        0.2621
     27 C          60.2892   88.3764   10.2017 C.ar    1  UNL1        0.1323
     28 N          59.8074   88.1830   11.6091 N.ar    1  UNL1       -0.2374
     29 C          59.4938   89.5336   12.1813 C.ar    1  UNL1        0.1062
     30 C          59.7817   90.5617   11.1277 C.ar    1  UNL1        0.0573
     31 S          60.2733   89.8465    9.9043 S.2     1  UNL1       -0.0666
@<TRIPOS>BOND
     1     2     3    1
     2     3     1    1
     3     1     4    1
     4     4     5    1
     5     5     6    1
     6     5     7    1
     7     7     8   am
     8     8     9    2
     9     8    11    1
    10    11    12    1
    11    12    13    1
    12    13    14   ar
    13    14    15   ar
    14    15    16   ar
    15    16    17   ar
    16     1    18    1
    17    18    19    1
    18    19    20    1
    19    19    21    1
    20    21    22   am
    21    22    23    2
    22    22    25    1
    23    25    26    1
    24    26    27    1
    25    27    28   ar
    26    28    29   ar
    27    29    30   ar
    28    30    31   ar
    29    17    13   ar
    30    31    27   ar
    31     7    10    1
    32    21    24    1
@<TRIPOS>MOLECULE
*****
 31 32 0 0 0
SMALL
GASTEIGER

@<TRIPOS>ATOM
      1 N          60.9987   89.8698   10.3855 N.3     1  UNL1       -0.2699
      2 C          59.4113   89.7005   12.4352 C.3     1  UNL1        0.0188
      3 C          59.6336   90.0244   10.9876 C.3     1  UNL1        0.0722
      4 C          62.0674   90.8801   10.6805 C.3     1  UNL1        0.0920
      5 C          63.2314   90.5083   11.5506 C.3     1  UNL1        0.0907
      6 C          63.1846   89.2524   12.3694 C.3     1  UNL1        0.0228
      7 N          64.4421   91.3924   11.6017 N.am    1  UNL1       -0.2709
      8 C          64.8749   91.9966   12.9046 C.2     1  UNL1        0.4020
      9 O          64.0971   91.7168   14.1563 O.2     1  UNL1       -0.2264
     10 H          64.9526   91.5761   10.7802 H       1  UNL1        0.1527
     11 O          66.0856   92.8807   12.9559 O.3     1  UNL1       -0.4291
     12 C          66.1309   94.1386   12.1400 C.3     1  UNL1        0.2447
     13 C          66.7738   94.1307   10.7847 C.ar    1  UNL1        0.0714
     14 C          67.3757   92.9388   10.1013 C.ar    1  UNL1        0.1053
     15 N          67.9015   93.3849    8.7692 N.ar    1  UNL1       -0.2350
     16 C          67.6245   94.8524    8.6293 C.ar    1  UNL1        0.1343
     17 S          66.9275   95.3134    9.8750 S.2     1  UNL1       -0.0652
     18 C          61.2951   88.7047    9.4883 C.3     1  UNL1        0.0920
     19 C          60.7784   87.3400    9.8357 C.3     1  UNL1        0.0907
     20 C          60.1133   86.5002    8.7859 C.3     1  UNL1        0.0228
     21 N          60.9270   86.8152   11.2330 N.am    1  UNL1       -0.2709
     22 C          61.9481   85.7580   11.5325 C.2     1  UNL1        0.4020
     23 O          62.8206   85.2257   10.4347 O.2     1  UNL1       -0.2264
     24 H          60.3543   87.1646   11.9536 H       1  UNL1        0.1527
     25 O          62.0966   85.2332   12.9298 O.3     1  UNL1       -0.4274
     26 C          63.1634   84.2263   13.2433 C.3     1  UNL1        0.2621
     27 C          62.8623   82.7600   13.1470 C.ar    1  UNL1        0.1323
     28 N          63.2257   81.8584   12.0046 N.ar    1  UNL1       -0.2374
     29 C          62.7329   80.4791   12.3277 C.ar    1  UNL1        0.1062
     30 C          62.0648   80.5281   13.6698 C.ar    1  UNL1        0.0573
     31 S          62.1447   81.9378   14.1761 S.2     1  UNL1       -0.0666
@<TRIPOS>BOND
     1     2     3    1
     2     3     1    1
     3     1     4    1
     4     4     5    1
     5     5     6    1
     6     5     7    1
     7     7     8   am
     8     8     9    2
     9     8    11    1
    10    11    12    1
    11    12    13    1
    12    13    14   ar
    13    14    15   ar
    14    15    16   ar
    15    16    17   ar
    16     1    18    1
    17    18    19    1
    18    19    20    1
    19    19    21    1
    20    21    22   am
    21    22    23    2
    22    22    25    1
    23    25    26    1
    24    26    27    1
    25    27    28   ar
    26    28    29   ar
    27    29    30   ar
    28    30    31   ar
    29    17    13   ar
    30    31    27   ar
    31     7    10    1
    32    21    24    1
@<TRIPOS>MOLECULE
*****
 31 32 0 0 0
SMALL
GASTEIGER

@<TRIPOS>ATOM
      1 N          63.8708   87.2954   15.5202 N.3     1  UNL1       -0.2699
      2 C          62.6952   86.3630   17.6412 C.3     1  UNL1        0.0188
      3 C          63.1017   87.5271   16.7870 C.3     1  UNL1        0.0722
      4 C          64.0889   88.4252   14.5579 C.3     1  UNL1        0.0920
      5 C          64.3414   89.8111   15.0732 C.3     1  UNL1        0.0907
      6 C          63.4562   90.3883   16.1377 C.3     1  UNL1        0.0228
      7 N          65.4791   90.6198   14.5239 N.am    1  UNL1       -0.2709
      8 C          65.2333   91.6093   13.4237 C.2     1  UNL1        0.4020
      9 O          63.8499   91.7901   12.8727 O.2     1  UNL1       -0.2264
     10 H          66.3870   90.5012   14.8855 H       1  UNL1        0.1527
     11 O          66.3709   92.4181   12.8743 O.3     1  UNL1       -0.4291
     12 C          66.0968   93.7019   12.1486 C.3     1  UNL1        0.2447
     13 C          66.7455   93.9669   10.8224 C.ar    1  UNL1        0.0714
     14 C          67.4156   92.9478    9.9492 C.ar    1  UNL1        0.1053
     15 N          67.9222   93.6487    8.7237 N.ar    1  UNL1       -0.2350
     16 C          67.5652   95.1010    8.8393 C.ar    1  UNL1        0.1343
     17 S          66.8379   95.2977   10.1364 S.2     1  UNL1       -0.0652
     18 C          64.4219   85.9339   15.2157 C.3     1  UNL1        0.0920
     19 C          63.5418   84.8904   14.5939 C.3     1  UNL1        0.0907
     20 C          63.6048   83.4716   15.0764 C.3     1  UNL1        0.0228
     21 N          62.5986   85.2659   13.4895 N.am    1  UNL1       -0.2709
     22 C          62.8254   84.7467   12.1006 C.2     1  UNL1        0.4020
     23 O          63.9953   83.8521   11.8162 O.2     1  UNL1       -0.2264
     24 H          61.8308   85.8531   13.6763 H       1  UNL1        0.1527
     25 O          61.8823   85.1222   10.9963 O.3     1  UNL1       -0.4274
     26 C          62.1292   86.3616   10.1882 C.3     1  UNL1        0.2621
     27 C          61.5907   87.6812   10.6557 C.ar    1  UNL1        0.1323
     28 N          60.3424   87.8888   11.4611 N.ar    1  UNL1       -0.2374
     29 C          60.1862   89.3608   11.7030 C.ar    1  UNL1        0.1062
     30 C          61.3380   90.0631   11.0471 C.ar    1  UNL1        0.0573
     31 S          62.2060   89.0251   10.3999 S.2     1  UNL1       -0.0666
@<TRIPOS>BOND
     1     2     3    1
     2     3     1    1
     3     1     4    1
     4     4     5    1
     5     5     6    1
     6     5     7    1
     7     7     8   am
     8     8     9    2
     9     8    11    1
    10    11    12    1
    11    12    13    1
    12    13    14   ar
    13    14    15   ar
    14    15    16   ar
    15    16    17   ar
    16     1    18    1
    17    18    19    1
    18    19    20    1
    19    19    21    1
    20    21    22   am
    21    22    23    2
    22    22    25    1
    23    25    26    1
    24    26    27    1
    25    27    28   ar
    26    28    29   ar
    27    29    30   ar
    28    30    31   ar
    29    17    13   ar
    30    31    27   ar
    31     7    10    1
    32    21    24    1
