@<TRIPOS>MOLECULE
*****
 32 35 0 0 0
SMALL
GASTEIGER

@<TRIPOS>ATOM
      1 C          63.7787   89.5023   13.5468 C.2     1  UNL1        0.2309
      2 O          63.7247   88.0042   13.4919 O.2     1  UNL1       -0.2744
      3 N          62.7313   90.3166   12.8470 N.am    1  UNL1       -0.2774
      4 H          62.7667   91.2998   12.8830 H       1  UNL1        0.1554
      5 C          61.6298   89.6329   12.0924 C.ar    1  UNL1        0.1015
      6 C          60.1799   89.6106   12.4762 C.ar    1  UNL1        0.1208
      7 N          59.4390   88.8154   11.4424 N.ar    1  UNL1       -0.2354
      8 C          60.4309   88.3462   10.4198 C.ar    1  UNL1        0.1135
      9 S          61.7849   88.8515   10.8214 S.2     1  UNL1       -0.0516
     10 C          60.1229   87.5173    9.2081 C.ar    1  UNL1        0.0459
     11 C          58.8420   87.5382    8.4279 C.ar    1  UNL1        0.1026
     12 N          58.9693   86.5558    7.3016 N.ar    1  UNL1       -0.2269
     13 C          60.3289   85.9278    7.3856 C.ar    1  UNL1        0.1406
     14 N          61.0098   84.8916    6.5415 N.ar    1  UNL1       -0.3374
     15 C          62.4037   84.4497    6.8756 C.ar    1  UNL1        0.0735
     16 C          63.1167   85.0440    8.0539 C.ar    1  UNL1        0.0186
     17 C          62.4358   86.0801    8.8981 C.ar    1  UNL1        0.0046
     18 C          61.0419   86.5221    8.5639 C.ar    1  UNL1        0.0374
     19 H          60.5418   84.5016    5.7681 H       1  UNL1        0.1674
     20 C          64.8802   90.1859   14.3014 C.3     1  UNL1        0.1117
     21 C          65.7021   93.2751   11.9496 C.ar    1  UNL1        0.0641
     22 C          66.4220   94.1771   12.9077 C.ar    1  UNL1        0.0158
     23 C          66.6280   93.7487   14.3304 C.ar    1  UNL1        0.0010
     24 C          66.1141   92.4184   14.7949 C.ar    1  UNL1       -0.0037
     25 C          65.3941   91.5163   13.8368 C.ar    1  UNL1       -0.0118
     26 C          65.1881   91.9446   12.4142 C.ar    1  UNL1        0.0121
     27 N          65.4960   93.7035   10.5269 N.pl3   1  UNL1       -0.2187
     28 H          64.5987   93.6585   10.1243 H       1  UNL1        0.1734
     29 C          67.8183   94.6971    8.9083 C.3     1  UNL1        0.1996
     30 S          66.6572   94.2003    9.7176 S.O2    1  UNL1        0.0558
     31 O          66.0347   95.5639    9.6615 O.2     1  UNL1       -0.1544
     32 O          67.2797   92.8368    9.7736 O.2     1  UNL1       -0.1544
@<TRIPOS>BOND
     1    29    30    1
     2    30    31    2
     3    30    32    2
     4    30    27    1
     5    27    21    1
     6    21    22   ar
     7    22    23   ar
     8    23    24   ar
     9    24    25   ar
    10    25    20    1
    11    20     1    1
    12     1     2    2
    13     1     3   am
    14     3     5    1
    15     5     6   ar
    16     6     7   ar
    17     7     8   ar
    18     8    10    1
    19    10    11   ar
    20    11    12   ar
    21    12    13   ar
    22    13    14   ar
    23    14    15   ar
    24    15    16   ar
    25    16    17   ar
    26    17    18   ar
    27     8     9   ar
    28    25    26   ar
    29    26    21   ar
    30     9     5   ar
    31    18    10   ar
    32    18    13    1
    33    27    28    1
    34     3     4    1
    35    14    19    1
@<TRIPOS>MOLECULE
*****
 32 35 0 0 0
SMALL
GASTEIGER

@<TRIPOS>ATOM
      1 C          63.8452   89.5295   15.1286 C.2     1  UNL1        0.2309
      2 O          62.4364   89.4250   15.6333 O.2     1  UNL1       -0.2744
      3 N          64.6412   88.2860   14.8640 N.am    1  UNL1       -0.2774
      4 H          65.5658   88.3545   14.5328 H       1  UNL1        0.1554
      5 C          64.0285   86.9379   15.1041 C.ar    1  UNL1        0.1015
      6 C          63.4958   86.4319   16.4119 C.ar    1  UNL1        0.1208
      7 N          62.9791   85.0406   16.1945 N.ar    1  UNL1       -0.2354
      8 C          63.1924   84.6868   14.7526 C.ar    1  UNL1        0.1135
      9 S          63.8410   85.8594   14.0787 S.2     1  UNL1       -0.0516
     10 C          62.8221   83.3883   14.0993 C.ar    1  UNL1        0.0459
     11 C          61.9791   82.3054   14.7049 C.ar    1  UNL1        0.1026
     12 N          61.8659   81.1926   13.7054 N.ar    1  UNL1       -0.2269
     13 C          62.6389   81.5878   12.4821 C.ar    1  UNL1        0.1406
     14 N          62.8809   80.8872   11.1781 N.ar    1  UNL1       -0.3374
     15 C          63.7139   81.5437   10.1174 C.ar    1  UNL1        0.0735
     16 C          64.3049   82.9007   10.3608 C.ar    1  UNL1        0.0186
     17 C          64.0629   83.6013   11.6649 C.ar    1  UNL1        0.0046
     18 C          63.2298   82.9448   12.7255 C.ar    1  UNL1        0.0374
     19 H          62.4930   79.9966   11.0183 H       1  UNL1        0.1674
     20 C          64.4578   90.8775   14.8885 C.3     1  UNL1        0.1117
     21 C          65.8277   92.9412   11.7879 C.ar    1  UNL1        0.0641
     22 C          64.9659   92.4017   10.6851 C.ar    1  UNL1        0.0158
     23 C          63.9347   91.3540   10.9835 C.ar    1  UNL1        0.0010
     24 C          63.7654   90.8460   12.3846 C.ar    1  UNL1       -0.0037
     25 C          64.6272   91.3855   13.4874 C.ar    1  UNL1       -0.0118
     26 C          65.6583   92.4332   13.1890 C.ar    1  UNL1        0.0121
     27 N          66.8590   93.9890   11.4895 N.pl3   1  UNL1       -0.2187
     28 H          67.5285   94.2286   12.1704 H       1  UNL1        0.1734
     29 C          66.8810   95.3541    8.8182 C.3     1  UNL1        0.1996
     30 S          66.8700   94.6715   10.1539 S.O2    1  UNL1        0.0558
     31 O          65.6908   95.5010   10.5680 O.2     1  UNL1       -0.1544
     32 O          68.0492   93.8421    9.7398 O.2     1  UNL1       -0.1544
@<TRIPOS>BOND
     1    29    30    1
     2    30    31    2
     3    30    32    2
     4    30    27    1
     5    27    21    1
     6    21    22   ar
     7    22    23   ar
     8    23    24   ar
     9    24    25   ar
    10    25    20    1
    11    20     1    1
    12     1     2    2
    13     1     3   am
    14     3     5    1
    15     5     6   ar
    16     6     7   ar
    17     7     8   ar
    18     8    10    1
    19    10    11   ar
    20    11    12   ar
    21    12    13   ar
    22    13    14   ar
    23    14    15   ar
    24    15    16   ar
    25    16    17   ar
    26    17    18   ar
    27     8     9   ar
    28    25    26   ar
    29    26    21   ar
    30     9     5   ar
    31    18    10   ar
    32    18    13    1
    33    27    28    1
    34     3     4    1
    35    14    19    1
@<TRIPOS>MOLECULE
*****
 32 35 0 0 0
SMALL
GASTEIGER

@<TRIPOS>ATOM
      1 C          61.9456   87.3549   10.8002 C.2     1  UNL1        0.2309
      2 O          61.4439   88.5732   10.0830 O.2     1  UNL1       -0.2744
      3 N          62.8490   87.5030   11.9884 N.am    1  UNL1       -0.2774
      4 H          63.1783   86.7035   12.4592 H       1  UNL1        0.1554
      5 C          63.2509   88.8694   12.4594 C.ar    1  UNL1        0.1015
      6 C          63.0561   90.1534   11.7087 C.ar    1  UNL1        0.1208
      7 N          63.6029   91.2690   12.5492 N.ar    1  UNL1       -0.2354
      8 C          64.1354   90.6747   13.8192 C.ar    1  UNL1        0.1135
      9 S          63.9179   89.1915   13.7637 S.2     1  UNL1       -0.0516
     10 C          64.7736   91.4306   14.9467 C.ar    1  UNL1        0.0459
     11 C          64.1195   91.7922   16.2473 C.ar    1  UNL1        0.1026
     12 N          65.1195   92.5427   17.0760 N.ar    1  UNL1       -0.2269
     13 C          66.3916   92.6449   16.2876 C.ar    1  UNL1        0.1406
     14 N          67.7169   93.2750   16.5980 N.ar    1  UNL1       -0.3374
     15 C          68.8284   93.2178   15.5925 C.ar    1  UNL1        0.0735
     16 C          68.6146   92.5304   14.2765 C.ar    1  UNL1        0.0186
     17 C          67.2892   91.9003   13.9661 C.ar    1  UNL1        0.0046
     18 C          66.1777   91.9575   14.9717 C.ar    1  UNL1        0.0374
     19 H          67.8572   93.7262   17.4618 H       1  UNL1        0.1674
     20 C          61.5437   85.9886   10.3292 C.3     1  UNL1        0.1117
     21 C          63.3788   82.9021   12.0189 C.ar    1  UNL1        0.0641
     22 C          64.3197   82.4971   10.9232 C.ar    1  UNL1        0.0158
     23 C          64.3353   83.2561    9.6295 C.ar    1  UNL1        0.0010
     24 C          63.4100   84.4199    9.4315 C.ar    1  UNL1       -0.0037
     25 C          62.4691   84.8248   10.5272 C.ar    1  UNL1       -0.0118
     26 C          62.4534   84.0659   11.8209 C.ar    1  UNL1        0.0121
     27 N          63.3631   82.1431   13.3128 N.pl3   1  UNL1       -0.2187
     28 H          64.1765   82.0956   13.8655 H       1  UNL1        0.1734
     29 C          60.8534   80.7700   14.2160 C.3     1  UNL1        0.1996
     30 S          62.1083   81.4565   13.7644 S.O2    1  UNL1        0.0558
     31 O          61.8743   82.5452   14.7694 O.2     1  UNL1       -0.1544
     32 O          62.3422   80.3679   12.7594 O.2     1  UNL1       -0.1544
@<TRIPOS>BOND
     1    29    30    1
     2    30    31    2
     3    30    32    2
     4    30    27    1
     5    27    21    1
     6    21    22   ar
     7    22    23   ar
     8    23    24   ar
     9    24    25   ar
    10    25    20    1
    11    20     1    1
    12     1     2    2
    13     1     3   am
    14     3     5    1
    15     5     6   ar
    16     6     7   ar
    17     7     8   ar
    18     8    10    1
    19    10    11   ar
    20    11    12   ar
    21    12    13   ar
    22    13    14   ar
    23    14    15   ar
    24    15    16   ar
    25    16    17   ar
    26    17    18   ar
    27     8     9   ar
    28    25    26   ar
    29    26    21   ar
    30     9     5   ar
    31    18    10   ar
    32    18    13    1
    33    27    28    1
    34     3     4    1
    35    14    19    1
@<TRIPOS>MOLECULE
*****
 32 35 0 0 0
SMALL
GASTEIGER

@<TRIPOS>ATOM
      1 C          63.6140   90.3283   14.8836 C.2     1  UNL1        0.2309
      2 O          62.5001   89.5541   15.5238 O.2     1  UNL1       -0.2744
      3 N          64.0876   89.9627   13.5081 N.am    1  UNL1       -0.2774
      4 H          64.8187   90.4708   13.0879 H       1  UNL1        0.1554
      5 C          63.4472   88.8228   12.7727 C.ar    1  UNL1        0.1015
      6 C          63.5966   87.3668   13.1011 C.ar    1  UNL1        0.1208
      7 N          62.7867   86.5830   12.1112 N.ar    1  UNL1       -0.2354
      8 C          62.1369   87.5545   11.1712 C.ar    1  UNL1        0.1135
      9 S          62.5450   88.9388   11.5800 S.2     1  UNL1       -0.0516
     10 C          61.2368   87.2034   10.0237 C.ar    1  UNL1        0.0459
     11 C          59.8360   87.6989    9.8184 C.ar    1  UNL1        0.1026
     12 N          59.3130   87.0969    8.5479 N.ar    1  UNL1       -0.2269
     13 C          60.3906   86.2294    7.9681 C.ar    1  UNL1        0.1406
     14 N          60.4427   85.3880    6.7274 N.ar    1  UNL1       -0.3374
     15 C          61.6839   84.6125    6.3989 C.ar    1  UNL1        0.0735
     16 C          62.8729   84.6783    7.3110 C.ar    1  UNL1        0.0186
     17 C          62.8207   85.5197    8.5516 C.ar    1  UNL1        0.0046
     18 C          61.5796   86.2952    8.8802 C.ar    1  UNL1        0.0374
     19 H          59.6624   85.3448    6.1287 H       1  UNL1        0.1674
     20 C          64.2544   91.4682   15.6189 C.3     1  UNL1        0.1117
     21 C          67.5372   92.2460   13.5291 C.ar    1  UNL1        0.0641
     22 C          68.4602   92.7143   14.6149 C.ar    1  UNL1        0.0158
     23 C          67.9811   92.7671   16.0353 C.ar    1  UNL1        0.0010
     24 C          66.5793   92.3518   16.3700 C.ar    1  UNL1       -0.0037
     25 C          65.6563   91.8836   15.2842 C.ar    1  UNL1       -0.0118
     26 C          66.1353   91.8307   13.8638 C.ar    1  UNL1        0.0121
     27 N          68.0162   92.1932   12.1086 N.pl3   1  UNL1       -0.2187
     28 H          68.8386   91.7006   11.8844 H       1  UNL1        0.1734
     29 C          66.4681   93.5885    9.9507 C.3     1  UNL1        0.1996
     30 S          67.2421   92.8908   11.0296 S.O2    1  UNL1        0.0558
     31 O          66.9035   93.9951   11.9866 O.2     1  UNL1       -0.1544
     32 O          67.5807   91.7866   10.0727 O.2     1  UNL1       -0.1544
@<TRIPOS>BOND
     1    29    30    1
     2    30    31    2
     3    30    32    2
     4    30    27    1
     5    27    21    1
     6    21    22   ar
     7    22    23   ar
     8    23    24   ar
     9    24    25   ar
    10    25    20    1
    11    20     1    1
    12     1     2    2
    13     1     3   am
    14     3     5    1
    15     5     6   ar
    16     6     7   ar
    17     7     8   ar
    18     8    10    1
    19    10    11   ar
    20    11    12   ar
    21    12    13   ar
    22    13    14   ar
    23    14    15   ar
    24    15    16   ar
    25    16    17   ar
    26    17    18   ar
    27     8     9   ar
    28    25    26   ar
    29    26    21   ar
    30     9     5   ar
    31    18    10   ar
    32    18    13    1
    33    27    28    1
    34     3     4    1
    35    14    19    1
@<TRIPOS>MOLECULE
*****
 32 35 0 0 0
SMALL
GASTEIGER

@<TRIPOS>ATOM
      1 C          63.8606   89.3676   15.0354 C.2     1  UNL1        0.2309
      2 O          62.5253   89.2572   15.7099 O.2     1  UNL1       -0.2744
      3 N          64.6189   88.1272   14.6657 N.am    1  UNL1       -0.2774
      4 H          65.4953   88.1997   14.2231 H       1  UNL1        0.1554
      5 C          64.0418   86.7766   14.9705 C.ar    1  UNL1        0.1015
      6 C          63.6176   86.2836   16.3222 C.ar    1  UNL1        0.1208
      7 N          63.1013   84.8841   16.1640 N.ar    1  UNL1       -0.2354
      8 C          63.2065   84.5122   14.7147 C.ar    1  UNL1        0.1135
      9 S          63.7877   85.6818   13.9770 S.2     1  UNL1       -0.0516
     10 C          62.8015   83.2009   14.1093 C.ar    1  UNL1        0.0459
     11 C          61.9496   82.1536   14.7631 C.ar    1  UNL1        0.1026
     12 N          61.7989   81.0122   13.8016 N.ar    1  UNL1       -0.2269
     13 C          62.5576   81.3541   12.5536 C.ar    1  UNL1        0.1406
     14 N          62.7643   80.6084   11.2687 N.ar    1  UNL1       -0.3374
     15 C          63.5907   81.2154   10.1739 C.ar    1  UNL1        0.0735
     16 C          64.2103   82.5681   10.3640 C.ar    1  UNL1        0.0186
     17 C          64.0036   83.3138   11.6490 C.ar    1  UNL1        0.0046
     18 C          63.1773   82.7068   12.7438 C.ar    1  UNL1        0.0374
     19 H          62.3576   79.7205   11.1438 H       1  UNL1        0.1674
     20 C          64.4376   90.7182   14.7307 C.3     1  UNL1        0.1117
     21 C          63.4299   91.2603   10.9307 C.ar    1  UNL1        0.0641
     22 C          64.4741   92.2467   10.4984 C.ar    1  UNL1        0.0158
     23 C          65.5061   92.7235   11.4770 C.ar    1  UNL1        0.0010
     24 C          65.4939   92.2140   12.8877 C.ar    1  UNL1       -0.0037
     25 C          64.4498   91.2277   13.3199 C.ar    1  UNL1       -0.0118
     26 C          63.4178   90.7508   12.3414 C.ar    1  UNL1        0.0121
     27 N          62.3979   90.7834    9.9521 N.pl3   1  UNL1       -0.2187
     28 H          62.3500   91.1825    9.0534 H       1  UNL1        0.1734
     29 C          60.4796   88.6131   10.7335 C.3     1  UNL1        0.1996
     30 S          61.4388   89.6983   10.3428 S.O2    1  UNL1        0.0558
     31 O          60.4456   90.7337   10.7805 O.2     1  UNL1       -0.1544
     32 O          62.4318   88.6629    9.9051 O.2     1  UNL1       -0.1544
@<TRIPOS>BOND
     1    29    30    1
     2    30    31    2
     3    30    32    2
     4    30    27    1
     5    27    21    1
     6    21    22   ar
     7    22    23   ar
     8    23    24   ar
     9    24    25   ar
    10    25    20    1
    11    20     1    1
    12     1     2    2
    13     1     3   am
    14     3     5    1
    15     5     6   ar
    16     6     7   ar
    17     7     8   ar
    18     8    10    1
    19    10    11   ar
    20    11    12   ar
    21    12    13   ar
    22    13    14   ar
    23    14    15   ar
    24    15    16   ar
    25    16    17   ar
    26    17    18   ar
    27     8     9   ar
    28    25    26   ar
    29    26    21   ar
    30     9     5   ar
    31    18    10   ar
    32    18    13    1
    33    27    28    1
    34     3     4    1
    35    14    19    1
@<TRIPOS>MOLECULE
*****
 32 35 0 0 0
SMALL
GASTEIGER

@<TRIPOS>ATOM
      1 C          62.1610   86.8404   10.4944 C.2     1  UNL1        0.2309
      2 O          62.7687   87.1325    9.1544 O.2     1  UNL1       -0.2744
      3 N          62.0807   87.9199   11.5329 N.am    1  UNL1       -0.2774
      4 H          61.6819   87.7282   12.4123 H       1  UNL1        0.1554
      5 C          62.6082   89.2914   11.2313 C.ar    1  UNL1        0.1015
      6 C          62.1177   90.2063   10.1486 C.ar    1  UNL1        0.1208
      7 N          62.9252   91.4690   10.2078 N.ar    1  UNL1       -0.2354
      8 C          63.9147   91.3346   11.3270 C.ar    1  UNL1        0.1135
      9 S          63.7188   89.9887   11.9597 S.2     1  UNL1       -0.0516
     10 C          64.9230   92.3650   11.7411 C.ar    1  UNL1        0.0459
     11 C          65.4577   93.4710   10.8804 C.ar    1  UNL1        0.1026
     12 N          66.4389   94.2599   11.6959 N.ar    1  UNL1       -0.2269
     13 C          66.5105   93.6414   13.0606 C.ar    1  UNL1        0.1406
     14 N          67.3078   93.9933   14.2814 N.ar    1  UNL1       -0.3374
     15 C          67.1682   93.1742   15.5301 C.ar    1  UNL1        0.0735
     16 C          66.2313   92.0030   15.5581 C.ar    1  UNL1        0.0186
     17 C          65.4341   91.6511   14.3373 C.ar    1  UNL1        0.0046
     18 C          65.5737   92.4703   13.0885 C.ar    1  UNL1        0.0374
     19 H          67.9227   94.7620   14.2631 H       1  UNL1        0.1674
     20 C          61.6335   85.4690   10.7958 C.3     1  UNL1        0.1117
     21 C          63.5630   83.6284   13.7351 C.ar    1  UNL1        0.0641
     22 C          64.2083   82.4995   12.9873 C.ar    1  UNL1        0.0158
     23 C          63.9953   82.3604   11.5091 C.ar    1  UNL1        0.0010
     24 C          63.1371   83.3502   10.7786 C.ar    1  UNL1       -0.0037
     25 C          62.4918   84.4791   11.5263 C.ar    1  UNL1       -0.0118
     26 C          62.7047   84.6183   13.0045 C.ar    1  UNL1        0.0121
     27 N          63.7760   83.7676   15.2134 N.pl3   1  UNL1       -0.2187
     28 H          64.0474   82.9862   15.7473 H       1  UNL1        0.1734
     29 C          63.3749   86.4269   16.5429 C.3     1  UNL1        0.1996
     30 S          63.5754   85.0972   15.8782 S.O2    1  UNL1        0.0558
     31 O          62.2673   84.6207   16.4366 O.2     1  UNL1       -0.1544
     32 O          64.8834   85.5737   15.3197 O.2     1  UNL1       -0.1544
@<TRIPOS>BOND
     1    29    30    1
     2    30    31    2
     3    30    32    2
     4    30    27    1
     5    27    21    1
     6    21    22   ar
     7    22    23   ar
     8    23    24   ar
     9    24    25   ar
    10    25    20    1
    11    20     1    1
    12     1     2    2
    13     1     3   am
    14     3     5    1
    15     5     6   ar
    16     6     7   ar
    17     7     8   ar
    18     8    10    1
    19    10    11   ar
    20    11    12   ar
    21    12    13   ar
    22    13    14   ar
    23    14    15   ar
    24    15    16   ar
    25    16    17   ar
    26    17    18   ar
    27     8     9   ar
    28    25    26   ar
    29    26    21   ar
    30     9     5   ar
    31    18    10   ar
    32    18    13    1
    33    27    28    1
    34     3     4    1
    35    14    19    1
@<TRIPOS>MOLECULE
*****
 32 35 0 0 0
SMALL
GASTEIGER

@<TRIPOS>ATOM
      1 C          64.5284   86.0138   14.9927 C.2     1  UNL1        0.2309
      2 O          65.9476   86.4502   15.2061 O.2     1  UNL1       -0.2744
      3 N          63.4181   87.0212   15.0446 N.am    1  UNL1       -0.2774
      4 H          62.4867   86.7348   14.9046 H       1  UNL1        0.1554
      5 C          63.7271   88.4649   15.3100 C.ar    1  UNL1        0.1015
      6 C          63.1750   89.2928   16.4324 C.ar    1  UNL1        0.1208
      7 N          63.7492   90.6737   16.3155 N.ar    1  UNL1       -0.2354
      8 C          64.6560   90.6991   15.1210 C.ar    1  UNL1        0.1135
      9 S          64.6425   89.3340   14.4995 S.2     1  UNL1       -0.0516
     10 C          65.4391   91.8820   14.6335 C.ar    1  UNL1        0.0459
     11 C          66.3124   92.7675   15.4721 C.ar    1  UNL1        0.1026
     12 N          66.8994   93.8198   14.5786 N.ar    1  UNL1       -0.2269
     13 C          66.3888   93.5846   13.1879 C.ar    1  UNL1        0.1406
     14 N          66.6291   94.3063   11.8951 N.ar    1  UNL1       -0.3374
     15 C          65.9669   93.8303   10.6362 C.ar    1  UNL1        0.0735
     16 C          65.0644   92.6327   10.6701 C.ar    1  UNL1        0.0186
     17 C          64.8241   91.9110   11.9630 C.ar    1  UNL1        0.0046
     18 C          65.4863   92.3870   13.2219 C.ar    1  UNL1        0.0374
     19 H          67.2214   95.0923   11.8729 H       1  UNL1        0.1674
     20 C          64.2195   84.5702   14.7274 C.3     1  UNL1        0.1117
     21 C          62.5417   84.4597   11.1326 C.ar    1  UNL1        0.0641
     22 C          63.1702   83.2219   10.5643 C.ar    1  UNL1        0.0158
     23 C          64.1484   82.4336   11.3838 C.ar    1  UNL1        0.0010
     24 C          64.4982   82.8830   12.7714 C.ar    1  UNL1       -0.0037
     25 C          63.8697   84.1207   13.3397 C.ar    1  UNL1       -0.0118
     26 C          62.8915   84.9091   12.5203 C.ar    1  UNL1        0.0121
     27 N          61.5634   85.2481   10.3131 N.pl3   1  UNL1       -0.2187
     28 H          60.7863   84.7995    9.9081 H       1  UNL1        0.1734
     29 C          61.9750   88.1921    9.9085 C.3     1  UNL1        0.1996
     30 S          61.7692   86.7201   10.1108 S.O2    1  UNL1        0.0558
     31 O          60.8558   87.0065   11.2657 O.2     1  UNL1       -0.1544
     32 O          62.6825   86.4338    8.9560 O.2     1  UNL1       -0.1544
@<TRIPOS>BOND
     1    29    30    1
     2    30    31    2
     3    30    32    2
     4    30    27    1
     5    27    21    1
     6    21    22   ar
     7    22    23   ar
     8    23    24   ar
     9    24    25   ar
    10    25    20    1
    11    20     1    1
    12     1     2    2
    13     1     3   am
    14     3     5    1
    15     5     6   ar
    16     6     7   ar
    17     7     8   ar
    18     8    10    1
    19    10    11   ar
    20    11    12   ar
    21    12    13   ar
    22    13    14   ar
    23    14    15   ar
    24    15    16   ar
    25    16    17   ar
    26    17    18   ar
    27     8     9   ar
    28    25    26   ar
    29    26    21   ar
    30     9     5   ar
    31    18    10   ar
    32    18    13    1
    33    27    28    1
    34     3     4    1
    35    14    19    1
@<TRIPOS>MOLECULE
*****
 32 35 0 0 0
SMALL
GASTEIGER

@<TRIPOS>ATOM
      1 C          63.7089   90.1404   15.4179 C.2     1  UNL1        0.2309
      2 O          62.2821   89.7454   15.6600 O.2     1  UNL1       -0.2744
      3 N          64.5880   89.2846   14.5550 N.am    1  UNL1       -0.2774
      4 H          65.5244   89.5438   14.3961 H       1  UNL1        0.1554
      5 C          64.0403   88.0337   13.9340 C.ar    1  UNL1        0.1015
      6 C          63.3552   87.9370   12.6031 C.ar    1  UNL1        0.1208
      7 N          62.9731   86.5035   12.3816 N.ar    1  UNL1       -0.2354
      8 C          63.4221   85.7142   13.5755 C.ar    1  UNL1        0.1135
      9 S          64.0817   86.6599   14.5350 S.2     1  UNL1       -0.0516
     10 C          63.2431   84.2384   13.7750 C.ar    1  UNL1        0.0459
     11 C          63.0014   83.5486   15.0849 C.ar    1  UNL1        0.1026
     12 N          62.8832   82.0771   14.8190 N.ar    1  UNL1       -0.2269
     13 C          63.0518   81.8574   13.3447 C.ar    1  UNL1        0.1406
     14 N          63.0316   80.6137   12.5066 N.ar    1  UNL1       -0.3374
     15 C          63.2338   80.7057   11.0231 C.ar    1  UNL1        0.0735
     16 C          63.4562   82.0414   10.3779 C.ar    1  UNL1        0.0186
     17 C          63.4764   83.2852   11.2161 C.ar    1  UNL1        0.0046
     18 C          63.2742   83.1932   12.6995 C.ar    1  UNL1        0.0374
     19 H          62.8856   79.7370   12.9300 H       1  UNL1        0.1674
     20 C          64.2565   91.3913   16.0389 C.3     1  UNL1        0.1117
     21 C          67.1028   92.6598   13.5815 C.ar    1  UNL1        0.0641
     22 C          68.1386   93.1229   14.5625 C.ar    1  UNL1        0.0158
     23 C          67.8804   93.0088   16.0357 C.ar    1  UNL1        0.0010
     24 C          66.5864   92.4316   16.5278 C.ar    1  UNL1       -0.0037
     25 C          65.5505   91.9685   15.5468 C.ar    1  UNL1       -0.0118
     26 C          65.8087   92.0826   14.0736 C.ar    1  UNL1        0.0121
     27 N          67.3610   92.7739   12.1082 N.pl3   1  UNL1       -0.2187
     28 H          68.1547   92.3462   11.7130 H       1  UNL1        0.1734
     29 C          65.4585   94.3056   10.3662 C.3     1  UNL1        0.1996
     30 S          66.4097   93.5398   11.2372 S.O2    1  UNL1        0.0558
     31 O          66.7325   94.7966   11.9898 O.2     1  UNL1       -0.1544
     32 O          66.0870   92.2831   10.4847 O.2     1  UNL1       -0.1544
@<TRIPOS>BOND
     1    29    30    1
     2    30    31    2
     3    30    32    2
     4    30    27    1
     5    27    21    1
     6    21    22   ar
     7    22    23   ar
     8    23    24   ar
     9    24    25   ar
    10    25    20    1
    11    20     1    1
    12     1     2    2
    13     1     3   am
    14     3     5    1
    15     5     6   ar
    16     6     7   ar
    17     7     8   ar
    18     8    10    1
    19    10    11   ar
    20    11    12   ar
    21    12    13   ar
    22    13    14   ar
    23    14    15   ar
    24    15    16   ar
    25    16    17   ar
    26    17    18   ar
    27     8     9   ar
    28    25    26   ar
    29    26    21   ar
    30     9     5   ar
    31    18    10   ar
    32    18    13    1
    33    27    28    1
    34     3     4    1
    35    14    19    1
@<TRIPOS>MOLECULE
*****
 32 35 0 0 0
SMALL
GASTEIGER

@<TRIPOS>ATOM
      1 C          62.1032   87.1085   10.5289 C.2     1  UNL1        0.2309
      2 O          62.5088   87.4774    9.1326 O.2     1  UNL1       -0.2744
      3 N          62.2400   88.1084   11.6386 N.am    1  UNL1       -0.2774
      4 H          61.9739   87.8664   12.5550 H       1  UNL1        0.1554
      5 C          62.7824   89.4773   11.3520 C.ar    1  UNL1        0.1015
      6 C          62.3413   90.3861   10.2431 C.ar    1  UNL1        0.1208
      7 N          63.1475   91.6481   10.3298 N.ar    1  UNL1       -0.2354
      8 C          64.0867   91.5194   11.4922 C.ar    1  UNL1        0.1135
      9 S          63.8611   90.1777   12.1240 S.2     1  UNL1       -0.0516
     10 C          65.0776   92.5510   11.9436 C.ar    1  UNL1        0.0459
     11 C          65.5761   93.7095   11.1315 C.ar    1  UNL1        0.1026
     12 N          66.5505   94.4798   11.9725 N.ar    1  UNL1       -0.2269
     13 C          66.6542   93.7974   13.3042 C.ar    1  UNL1        0.1406
     14 N          67.4600   94.1075   14.5308 N.ar    1  UNL1       -0.3374
     15 C          67.3554   93.2255   15.7396 C.ar    1  UNL1        0.0735
     16 C          66.4451   92.0335   15.7218 C.ar    1  UNL1        0.0186
     17 C          65.6393   91.7234   14.4952 C.ar    1  UNL1        0.0046
     18 C          65.7439   92.6053   13.2864 C.ar    1  UNL1        0.0374
     19 H          68.0575   94.8898   14.5425 H       1  UNL1        0.1674
     20 C          61.5609   85.7396   10.8155 C.3     1  UNL1        0.1117
     21 C          63.4220   82.5127   12.1839 C.ar    1  UNL1        0.0641
     22 C          64.3509   82.2164   11.0440 C.ar    1  UNL1        0.0158
     23 C          64.3496   83.0945    9.8279 C.ar    1  UNL1        0.0010
     24 C          63.4197   84.2689    9.7517 C.ar    1  UNL1       -0.0037
     25 C          62.4909   84.5652   10.8916 C.ar    1  UNL1       -0.0118
     26 C          62.4920   83.6872   12.1077 C.ar    1  UNL1        0.0121
     27 N          63.4232   81.6346   13.4001 N.pl3   1  UNL1       -0.2187
     28 H          64.2568   81.4934   13.9045 H       1  UNL1        0.1734
     29 C          60.8853   80.3087   14.2953 C.3     1  UNL1        0.1996
     30 S          62.1543   80.9717   13.8477 S.O2    1  UNL1        0.0558
     31 O          61.9942   82.0045   14.9237 O.2     1  UNL1       -0.1544
     32 O          62.3143   79.9389   12.7718 O.2     1  UNL1       -0.1544
@<TRIPOS>BOND
     1    29    30    1
     2    30    31    2
     3    30    32    2
     4    30    27    1
     5    27    21    1
     6    21    22   ar
     7    22    23   ar
     8    23    24   ar
     9    24    25   ar
    10    25    20    1
    11    20     1    1
    12     1     2    2
    13     1     3   am
    14     3     5    1
    15     5     6   ar
    16     6     7   ar
    17     7     8   ar
    18     8    10    1
    19    10    11   ar
    20    11    12   ar
    21    12    13   ar
    22    13    14   ar
    23    14    15   ar
    24    15    16   ar
    25    16    17   ar
    26    17    18   ar
    27     8     9   ar
    28    25    26   ar
    29    26    21   ar
    30     9     5   ar
    31    18    10   ar
    32    18    13    1
    33    27    28    1
    34     3     4    1
    35    14    19    1
