@<TRIPOS>MOLECULE
*****
 22 24 0 0 0
SMALL
GASTEIGER

@<TRIPOS>ATOM
      1 C          66.0068   92.3794   13.5958 C.3     1  UNL1        0.0207
      2 C          65.3886   92.5192   12.2363 C.3     1  UNL1        0.0274
      3 C          64.3330   91.5517   11.7893 C.ar    1  UNL1       -0.0258
      4 C          63.7148   91.6915   10.4298 C.ar    1  UNL1       -0.0046
      5 C          62.6593   90.7240    9.9829 C.ar    1  UNL1       -0.0003
      6 C          62.2218   89.6169   10.8955 C.ar    1  UNL1       -0.0003
      7 C          62.8400   89.4771   12.2550 C.ar    1  UNL1       -0.0043
      8 C          63.8956   90.4445   12.7019 C.ar    1  UNL1       -0.0224
      9 C          64.5138   90.3048   14.0615 C.3     1  UNL1        0.0443
     10 C          65.5694   91.2722   14.5084 C.3     1  UNL1        0.0104
     11 C          64.0764   89.1976   14.9741 C.ar    1  UNL1       -0.0175
     12 C          63.2872   89.5122   16.2103 C.ar    1  UNL1       -0.0030
     13 C          62.8498   88.4051   17.1229 C.ar    1  UNL1        0.0119
     14 C          63.2016   86.9832   16.7992 C.ar    1  UNL1        0.0682
     15 CL         62.7642   85.8760   17.7118 Cl      1  UNL1       -0.0814
     16 C          63.9907   86.6686   15.5630 C.ar    1  UNL1        0.0679
     17 CL         64.3425   85.2468   15.2393 Cl      1  UNL1       -0.0814
     18 C          64.4281   87.7758   14.6504 C.ar    1  UNL1        0.0083
     19 C          67.0624   93.3469   14.0428 C.3     1  UNL1        0.0689
     20 C          68.7544   92.6984   15.9047 C.3     1  UNL1        0.0859
     21 N          68.4157   92.8447   14.4508 N.3     1  UNL1       -0.2963
     22 H          68.5274   91.9230   14.0283 H       1  UNL1        0.1233
@<TRIPOS>BOND
     1    20    21    1
     2    21    19    1
     3     1    19    1
     4     1     2    1
     5     2     3    1
     6     3     4   ar
     7     4     5   ar
     8     5     6   ar
     9     6     7   ar
    10     7     8   ar
    11     8     9    1
    12     9    11    1
    13    11    12   ar
    14    12    13   ar
    15    13    14   ar
    16    14    15    1
    17    14    16   ar
    18    16    17    1
    19    16    18   ar
    20     9    10    1
    21    10     1    1
    22     8     3   ar
    23    18    11   ar
    24    21    22    1
@<TRIPOS>MOLECULE
*****
 22 24 0 0 0
SMALL
GASTEIGER

@<TRIPOS>ATOM
      1 C          62.6849   89.5344   11.5044 C.3     1  UNL1        0.0207
      2 C          61.7324   89.8704   10.3955 C.3     1  UNL1        0.0274
      3 C          61.0692   88.7723    9.6179 C.ar    1  UNL1       -0.0258
      4 C          60.1166   89.1084    8.5090 C.ar    1  UNL1       -0.0046
      5 C          59.4535   88.0103    7.7314 C.ar    1  UNL1       -0.0003
      6 C          59.7430   86.5763    8.0628 C.ar    1  UNL1       -0.0003
      7 C          60.6955   86.2403    9.1717 C.ar    1  UNL1       -0.0043
      8 C          61.3586   87.3383    9.9492 C.ar    1  UNL1       -0.0224
      9 C          62.3112   87.0023   11.0582 C.3     1  UNL1        0.0443
     10 C          62.9743   88.1004   11.8357 C.3     1  UNL1        0.0104
     11 C          62.6006   85.5683   11.3896 C.ar    1  UNL1       -0.0175
     12 C          63.1356   84.6476   10.3330 C.ar    1  UNL1       -0.0030
     13 C          63.4250   83.2136   10.6644 C.ar    1  UNL1        0.0119
     14 C          63.1795   82.7003   12.0523 C.ar    1  UNL1        0.0682
     15 CL         63.4689   81.2663   12.3837 Cl      1  UNL1       -0.0814
     16 C          62.6446   83.6209   13.1088 C.ar    1  UNL1        0.0679
     17 CL         62.3991   83.1076   14.4967 Cl      1  UNL1       -0.0814
     18 C          62.3552   85.0550   12.7774 C.ar    1  UNL1        0.0083
     19 C          63.3481   90.6324   12.2820 C.3     1  UNL1        0.0689
     20 C          63.9819   90.7161   14.8001 C.3     1  UNL1        0.0859
     21 N          62.9633   90.8774   13.7109 N.3     1  UNL1       -0.2963
     22 H          62.6250   91.8382   13.7641 H       1  UNL1        0.1233
@<TRIPOS>BOND
     1    20    21    1
     2    21    19    1
     3     1    19    1
     4     1     2    1
     5     2     3    1
     6     3     4   ar
     7     4     5   ar
     8     5     6   ar
     9     6     7   ar
    10     7     8   ar
    11     8     9    1
    12     9    11    1
    13    11    12   ar
    14    12    13   ar
    15    13    14   ar
    16    14    15    1
    17    14    16   ar
    18    16    17    1
    19    16    18   ar
    20     9    10    1
    21    10     1    1
    22     8     3   ar
    23    18    11   ar
    24    21    22    1
@<TRIPOS>MOLECULE
*****
 22 24 0 0 0
SMALL
GASTEIGER

@<TRIPOS>ATOM
      1 C          60.2958   87.6315    8.6843 C.3     1  UNL1        0.0207
      2 C          60.6393   88.9837    9.2350 C.3     1  UNL1        0.0274
      3 C          61.5923   89.1044   10.3871 C.ar    1  UNL1       -0.0258
      4 C          61.9358   90.4567   10.9379 C.ar    1  UNL1       -0.0046
      5 C          62.8888   90.5773   12.0899 C.ar    1  UNL1       -0.0003
      6 C          63.4983   89.3457   12.6912 C.ar    1  UNL1       -0.0003
      7 C          63.1549   87.9934   12.1405 C.ar    1  UNL1       -0.0043
      8 C          62.2019   87.8728   10.9884 C.ar    1  UNL1       -0.0224
      9 C          61.8584   86.5205   10.4376 C.3     1  UNL1        0.0443
     10 C          60.9054   86.3998    9.2856 C.3     1  UNL1        0.0104
     11 C          62.4679   85.2888   11.0389 C.ar    1  UNL1       -0.0175
     12 C          63.3210   84.3867   10.1972 C.ar    1  UNL1       -0.0030
     13 C          63.9305   83.1551   10.7985 C.ar    1  UNL1        0.0119
     14 C          63.6869   82.8256   12.2415 C.ar    1  UNL1        0.0682
     15 CL         64.2965   81.5939   12.8428 Cl      1  UNL1       -0.0814
     16 C          62.8339   83.7277   13.0831 C.ar    1  UNL1        0.0679
     17 CL         62.5903   83.3982   14.5261 Cl      1  UNL1       -0.0814
     18 C          62.2243   84.9593   12.4818 C.ar    1  UNL1        0.0083
     19 C          59.3428   87.5108    7.5322 C.3     1  UNL1        0.0689
     20 C          59.3060   89.6989    6.1320 C.3     1  UNL1        0.0859
     21 N          58.6116   88.7218    7.0337 N.3     1  UNL1       -0.2963
     22 H          57.7932   88.3839    6.5272 H       1  UNL1        0.1233
@<TRIPOS>BOND
     1    20    21    1
     2    21    19    1
     3     1    19    1
     4     1     2    1
     5     2     3    1
     6     3     4   ar
     7     4     5   ar
     8     5     6   ar
     9     6     7   ar
    10     7     8   ar
    11     8     9    1
    12     9    11    1
    13    11    12   ar
    14    12    13   ar
    15    13    14   ar
    16    14    15    1
    17    14    16   ar
    18    16    17    1
    19    16    18   ar
    20     9    10    1
    21    10     1    1
    22     8     3   ar
    23    18    11   ar
    24    21    22    1
@<TRIPOS>MOLECULE
*****
 22 24 0 0 0
SMALL
GASTEIGER

@<TRIPOS>ATOM
      1 C          62.7580   89.5764   11.6366 C.3     1  UNL1        0.0207
      2 C          61.8271   89.8667   10.4969 C.3     1  UNL1        0.0274
      3 C          61.1753   88.7378    9.7546 C.ar    1  UNL1       -0.0258
      4 C          60.2444   89.0281    8.6148 C.ar    1  UNL1       -0.0046
      5 C          59.5927   87.8993    7.8726 C.ar    1  UNL1       -0.0003
      6 C          59.8719   86.4801    8.2702 C.ar    1  UNL1       -0.0003
      7 C          60.8028   86.1898    9.4099 C.ar    1  UNL1       -0.0043
      8 C          61.4545   87.3187   10.1521 C.ar    1  UNL1       -0.0224
      9 C          62.3855   87.0284   11.2920 C.3     1  UNL1        0.0443
     10 C          63.0372   88.1573   12.0342 C.3     1  UNL1        0.0104
     11 C          62.6647   85.6093   11.6895 C.ar    1  UNL1       -0.0175
     12 C          62.3789   85.1525   13.0895 C.ar    1  UNL1       -0.0030
     13 C          62.6581   83.7333   13.4870 C.ar    1  UNL1        0.0119
     14 C          63.2231   82.7709   12.4847 C.ar    1  UNL1        0.0682
     15 CL         63.5023   81.3518   12.8822 Cl      1  UNL1       -0.0814
     16 C          63.5088   83.2277   11.0848 C.ar    1  UNL1        0.0679
     17 CL         64.0738   82.2654   10.0824 Cl      1  UNL1       -0.0814
     18 C          63.2296   84.6469   10.6872 C.ar    1  UNL1        0.0083
     19 C          63.4097   90.7053   12.3789 C.3     1  UNL1        0.0689
     20 C          64.1668   90.7917   14.8626 C.3     1  UNL1        0.0859
     21 N          63.0913   90.9337   13.8268 N.3     1  UNL1       -0.2963
     22 H          62.7331   91.8857   13.9028 H       1  UNL1        0.1233
@<TRIPOS>BOND
     1    20    21    1
     2    21    19    1
     3     1    19    1
     4     1     2    1
     5     2     3    1
     6     3     4   ar
     7     4     5   ar
     8     5     6   ar
     9     6     7   ar
    10     7     8   ar
    11     8     9    1
    12     9    11    1
    13    11    12   ar
    14    12    13   ar
    15    13    14   ar
    16    14    15    1
    17    14    16   ar
    18    16    17    1
    19    16    18   ar
    20     9    10    1
    21    10     1    1
    22     8     3   ar
    23    18    11   ar
    24    21    22    1
@<TRIPOS>MOLECULE
*****
 22 24 0 0 0
SMALL
GASTEIGER

@<TRIPOS>ATOM
      1 C          61.5107   88.0829   10.0724 C.3     1  UNL1        0.0207
      2 C          62.1433   89.1754   10.8825 C.3     1  UNL1        0.0274
      3 C          62.9369   88.8360   12.1094 C.ar    1  UNL1       -0.0258
      4 C          63.5695   89.9285   12.9194 C.ar    1  UNL1       -0.0046
      5 C          64.3629   89.5891   14.1462 C.ar    1  UNL1       -0.0003
      6 C          64.5238   88.1572   14.5630 C.ar    1  UNL1       -0.0003
      7 C          63.8912   87.0647   13.7530 C.ar    1  UNL1       -0.0043
      8 C          63.0978   87.4041   12.5261 C.ar    1  UNL1       -0.0224
      9 C          62.4651   86.3116   11.7160 C.3     1  UNL1        0.0443
     10 C          61.6716   86.6510   10.4892 C.3     1  UNL1        0.0104
     11 C          62.6260   84.8796   12.1328 C.ar    1  UNL1       -0.0175
     12 C          62.4469   84.4924   13.5709 C.ar    1  UNL1       -0.0030
     13 C          62.6078   83.0605   13.9877 C.ar    1  UNL1        0.0119
     14 C          62.9478   82.0158   12.9664 C.ar    1  UNL1        0.0682
     15 CL         63.1087   80.5839   13.3831 Cl      1  UNL1       -0.0814
     16 C          63.1269   82.4030   11.5283 C.ar    1  UNL1        0.0679
     17 CL         63.4668   81.3583   10.5070 Cl      1  UNL1       -0.0814
     18 C          62.9660   83.8349   11.1116 C.ar    1  UNL1        0.0083
     19 C          60.7172   88.4223    8.8456 C.3     1  UNL1        0.0689
     20 C          59.2858   86.5924    7.6827 C.3     1  UNL1        0.0859
     21 N          59.3881   87.7690    8.6075 N.3     1  UNL1       -0.2963
     22 H          59.0450   87.4594    9.5168 H       1  UNL1        0.1233
@<TRIPOS>BOND
     1    20    21    1
     2    21    19    1
     3     1    19    1
     4     1     2    1
     5     2     3    1
     6     3     4   ar
     7     4     5   ar
     8     5     6   ar
     9     6     7   ar
    10     7     8   ar
    11     8     9    1
    12     9    11    1
    13    11    12   ar
    14    12    13   ar
    15    13    14   ar
    16    14    15    1
    17    14    16   ar
    18    16    17    1
    19    16    18   ar
    20     9    10    1
    21    10     1    1
    22     8     3   ar
    23    18    11   ar
    24    21    22    1
@<TRIPOS>MOLECULE
*****
 22 24 0 0 0
SMALL
GASTEIGER

@<TRIPOS>ATOM
      1 C          61.9369   88.2842   10.3938 C.3     1  UNL1        0.0207
      2 C          62.5693   89.1523   11.4408 C.3     1  UNL1        0.0274
      3 C          63.2657   88.5271   12.6131 C.ar    1  UNL1       -0.0258
      4 C          63.8981   89.3952   13.6601 C.ar    1  UNL1       -0.0046
      5 C          64.5944   88.7700   14.8323 C.ar    1  UNL1       -0.0003
      6 C          64.6583   87.2766   14.9576 C.ar    1  UNL1       -0.0003
      7 C          64.0258   86.4084   13.9106 C.ar    1  UNL1       -0.0043
      8 C          63.3295   87.0337   12.7383 C.ar    1  UNL1       -0.0224
      9 C          62.6970   86.1655   11.6913 C.3     1  UNL1        0.0443
     10 C          62.0007   86.7908   10.5190 C.3     1  UNL1        0.0104
     11 C          62.7608   84.6721   11.8165 C.ar    1  UNL1       -0.0175
     12 C          63.3116   83.8479   10.6907 C.ar    1  UNL1       -0.0030
     13 C          63.3754   82.3545   10.8159 C.ar    1  UNL1        0.0119
     14 C          62.8885   81.6853   12.0670 C.ar    1  UNL1        0.0682
     15 CL         62.9523   80.1919   12.1922 Cl      1  UNL1       -0.0814
     16 C          62.3377   82.5095   13.1927 C.ar    1  UNL1        0.0679
     17 CL         61.8508   81.8403   14.4438 Cl      1  UNL1       -0.0814
     18 C          62.2739   84.0029   13.0675 C.ar    1  UNL1        0.0083
     19 C          61.2405   88.9094    9.2215 C.3     1  UNL1        0.0689
     20 C          59.7811   90.3218   10.8416 C.3     1  UNL1        0.0859
     21 N          60.1616   89.9271    9.4454 N.3     1  UNL1       -0.2963
     22 H          60.4571   90.7792    8.9688 H       1  UNL1        0.1233
@<TRIPOS>BOND
     1    20    21    1
     2    21    19    1
     3     1    19    1
     4     1     2    1
     5     2     3    1
     6     3     4   ar
     7     4     5   ar
     8     5     6   ar
     9     6     7   ar
    10     7     8   ar
    11     8     9    1
    12     9    11    1
    13    11    12   ar
    14    12    13   ar
    15    13    14   ar
    16    14    15    1
    17    14    16   ar
    18    16    17    1
    19    16    18   ar
    20     9    10    1
    21    10     1    1
    22     8     3   ar
    23    18    11   ar
    24    21    22    1
@<TRIPOS>MOLECULE
*****
 22 24 0 0 0
SMALL
GASTEIGER

@<TRIPOS>ATOM
      1 C          63.5014   90.8097   12.1716 C.3     1  UNL1        0.0207
      2 C          63.9608   90.7319   13.5974 C.3     1  UNL1        0.0274
      3 C          65.0531   91.6376   14.0840 C.ar    1  UNL1       -0.0258
      4 C          65.5124   91.5597   15.5097 C.ar    1  UNL1       -0.0046
      5 C          66.6047   92.4654   15.9963 C.ar    1  UNL1       -0.0003
      6 C          67.2376   93.4489   15.0570 C.ar    1  UNL1       -0.0003
      7 C          66.7782   93.5267   13.6312 C.ar    1  UNL1       -0.0043
      8 C          65.6860   92.6211   13.1447 C.ar    1  UNL1       -0.0224
      9 C          65.2266   92.6989   11.7189 C.3     1  UNL1        0.0443
     10 C          64.1343   91.7932   11.2323 C.3     1  UNL1        0.0104
     11 C          65.8594   93.6824   10.7796 C.ar    1  UNL1       -0.0175
     12 C          65.4688   95.1297   10.8341 C.ar    1  UNL1       -0.0030
     13 C          66.1017   96.1132    9.8949 C.ar    1  UNL1        0.0119
     14 C          67.1252   95.6494    8.9011 C.ar    1  UNL1        0.0682
     15 CL         67.7581   96.6329    7.9619 Cl      1  UNL1       -0.0814
     16 C          67.5157   94.2022    8.8467 C.ar    1  UNL1        0.0679
     17 CL         68.5392   93.7384    7.8529 Cl      1  UNL1       -0.0814
     18 C          66.8829   93.2187    9.7859 C.ar    1  UNL1        0.0083
     19 C          62.4092   89.9041   11.6850 C.3     1  UNL1        0.0689
     20 C          59.8265   89.6550   11.8168 C.3     1  UNL1        0.0859
     21 N          61.1607   89.7307   12.4981 N.3     1  UNL1       -0.2963
     22 H          61.2711   88.8652   13.0263 H       1  UNL1        0.1233
@<TRIPOS>BOND
     1    20    21    1
     2    21    19    1
     3     1    19    1
     4     1     2    1
     5     2     3    1
     6     3     4   ar
     7     4     5   ar
     8     5     6   ar
     9     6     7   ar
    10     7     8   ar
    11     8     9    1
    12     9    11    1
    13    11    12   ar
    14    12    13   ar
    15    13    14   ar
    16    14    15    1
    17    14    16   ar
    18    16    17    1
    19    16    18   ar
    20     9    10    1
    21    10     1    1
    22     8     3   ar
    23    18    11   ar
    24    21    22    1
@<TRIPOS>MOLECULE
*****
 22 24 0 0 0
SMALL
GASTEIGER

@<TRIPOS>ATOM
      1 C          61.9209   88.8268   10.7578 C.3     1  UNL1        0.0207
      2 C          61.9835   87.3466   10.9921 C.3     1  UNL1        0.0274
      3 C          62.7815   86.8019   12.1395 C.ar    1  UNL1       -0.0258
      4 C          62.8440   85.3217   12.3738 C.ar    1  UNL1       -0.0046
      5 C          63.6420   84.7770   13.5212 C.ar    1  UNL1       -0.0003
      6 C          64.3775   85.7126   14.4342 C.ar    1  UNL1       -0.0003
      7 C          64.3150   87.1929   14.1999 C.ar    1  UNL1       -0.0043
      8 C          63.5170   87.7375   13.0526 C.ar    1  UNL1       -0.0224
      9 C          63.4544   89.2178   12.8182 C.3     1  UNL1        0.0443
     10 C          62.6564   89.7625   11.6709 C.3     1  UNL1        0.0104
     11 C          64.1899   90.1534   13.7313 C.ar    1  UNL1       -0.0175
     12 C          63.6857   90.3936   15.1235 C.ar    1  UNL1       -0.0030
     13 C          64.4212   91.3292   16.0366 C.ar    1  UNL1        0.0119
     14 C          65.6609   92.0246   15.5574 C.ar    1  UNL1        0.0682
     15 CL         66.3964   92.9602   16.4705 Cl      1  UNL1       -0.0814
     16 C          66.1651   91.7845   14.1653 C.ar    1  UNL1        0.0679
     17 CL         67.4048   92.4799   13.6862 Cl      1  UNL1       -0.0814
     18 C          65.4296   90.8489   13.2522 C.ar    1  UNL1        0.0083
     19 C          61.1229   89.3716    9.6104 C.3     1  UNL1        0.0689
     20 C          59.4644   90.5575   11.2205 C.3     1  UNL1        0.0859
     21 N          60.0695   90.4108    9.8559 N.3     1  UNL1       -0.2963
     22 H          60.4843   91.3121    9.6193 H       1  UNL1        0.1233
@<TRIPOS>BOND
     1    20    21    1
     2    21    19    1
     3     1    19    1
     4     1     2    1
     5     2     3    1
     6     3     4   ar
     7     4     5   ar
     8     5     6   ar
     9     6     7   ar
    10     7     8   ar
    11     8     9    1
    12     9    11    1
    13    11    12   ar
    14    12    13   ar
    15    13    14   ar
    16    14    15    1
    17    14    16   ar
    18    16    17    1
    19    16    18   ar
    20     9    10    1
    21    10     1    1
    22     8     3   ar
    23    18    11   ar
    24    21    22    1
@<TRIPOS>MOLECULE
*****
 22 24 0 0 0
SMALL
GASTEIGER

@<TRIPOS>ATOM
      1 C          64.3128   90.3463   13.7243 C.3     1  UNL1        0.0207
      2 C          63.5608   90.8666   12.5352 C.3     1  UNL1        0.0274
      3 C          62.8360   89.9143   11.6308 C.ar    1  UNL1       -0.0258
      4 C          62.0840   90.4345   10.4418 C.ar    1  UNL1       -0.0046
      5 C          61.3592   89.4823    9.5375 C.ar    1  UNL1       -0.0003
      6 C          61.3863   88.0098    9.8222 C.ar    1  UNL1       -0.0003
      7 C          62.1383   87.4896   11.0112 C.ar    1  UNL1       -0.0043
      8 C          62.8631   88.4418   11.9156 C.ar    1  UNL1       -0.0224
      9 C          63.6152   87.9216   13.1046 C.3     1  UNL1        0.0443
     10 C          64.3400   88.8738   14.0090 C.3     1  UNL1        0.0104
     11 C          63.6423   86.4491   13.3894 C.ar    1  UNL1       -0.0175
     12 C          64.2646   85.9416   14.6564 C.ar    1  UNL1       -0.0030
     13 C          64.2917   84.4691   14.9411 C.ar    1  UNL1        0.0119
     14 C          63.6967   83.5041   13.9588 C.ar    1  UNL1        0.0682
     15 CL         63.7238   82.0317   14.2435 Cl      1  UNL1       -0.0814
     16 C          63.0745   84.0117   12.6918 C.ar    1  UNL1        0.0679
     17 CL         62.4795   83.0468   11.7095 Cl      1  UNL1       -0.0814
     18 C          63.0473   85.4842   12.4071 C.ar    1  UNL1        0.0083
     19 C          65.0377   91.2986   14.6287 C.3     1  UNL1        0.0689
     20 C          66.6381   93.3365   14.8161 C.3     1  UNL1        0.0859
     21 N          65.5513   92.6008   14.0898 N.3     1  UNL1       -0.2963
     22 H          65.8999   92.4135   13.1497 H       1  UNL1        0.1233
@<TRIPOS>BOND
     1    20    21    1
     2    21    19    1
     3     1    19    1
     4     1     2    1
     5     2     3    1
     6     3     4   ar
     7     4     5   ar
     8     5     6   ar
     9     6     7   ar
    10     7     8   ar
    11     8     9    1
    12     9    11    1
    13    11    12   ar
    14    12    13   ar
    15    13    14   ar
    16    14    15    1
    17    14    16   ar
    18    16    17    1
    19    16    18   ar
    20     9    10    1
    21    10     1    1
    22     8     3   ar
    23    18    11   ar
    24    21    22    1
