@<TRIPOS>MOLECULE
*****
 62 69 0 0 0
SMALL
GASTEIGER

@<TRIPOS>ATOM
      1 N          65.7617   89.9567   13.9557 N.3     1  UNL1       -0.1862
      2 C          66.1891   88.7824   14.7853 C.3     1  UNL1        0.1775
      3 C          65.3800   87.5194   14.7705 C.2     1  UNL1        0.2452
      4 O          65.8075   86.3450   15.6001 O.2     1  UNL1       -0.2732
      5 N          64.1434   87.4307   13.9262 N.am    1  UNL1       -0.2541
      6 C          63.3343   86.1678   13.9114 C.3     1  UNL1        0.1577
      7 C          62.0977   86.0791   13.0671 C.2     1  UNL1        0.2445
      8 O          61.2885   84.8162   13.0523 O.2     1  UNL1       -0.2731
      9 N          61.6701   87.2535   12.2375 N.am    1  UNL1       -0.2705
     10 C          62.4793   88.5165   12.2523 C.3     1  UNL1        0.1359
     11 C          63.7159   88.6051   13.0966 C.3     1  UNL1        0.1908
     12 N          64.5251   89.8680   13.1114 N.am    1  UNL1       -0.1863
     13 C          64.0975   91.0424   12.2818 C.2     1  UNL1        0.3191
     14 O          62.8609   90.9538   11.4375 O.2     1  UNL1       -0.2512
     15 N          64.9067   92.3054   12.2966 N.am    1  UNL1       -0.2836
     16 H          65.7183   92.3635   12.8507 H       1  UNL1        0.1513
     17 C          66.5708   91.2196   13.9705 C.3     1  UNL1        0.1188
     18 C          66.9438   92.7126   16.0638 C.2     1  UNL1       -0.0034
     19 C          67.3780   91.5791   15.1826 C.2     1  UNL1       -0.0071
     20 C          63.7617   84.9935   14.7410 C.3     1  UNL1        0.0556
     21 C          63.4596   83.5988   14.2786 C.ar    1  UNL1       -0.0198
     22 C          64.2908   82.9697   13.2001 C.ar    1  UNL1       -0.0011
     23 C          63.9886   81.5751   12.7377 C.ar    1  UNL1        0.0363
     24 C          62.8553   80.8096   13.3538 C.ar    1  UNL1        0.1337
     25 O          62.5532   79.4150   12.8915 O.3     1  UNL1       -0.5055
     26 C          62.0240   81.4388   14.4324 C.ar    1  UNL1        0.0363
     27 C          62.3262   82.8334   14.8948 C.ar    1  UNL1       -0.0011
     28 H          63.0724   79.0220   12.2177 H       1  UNL1        0.2922
     29 C          60.4335   87.1649   11.3932 C.3     1  UNL1        0.1217
     30 C          60.5406   87.2208    9.8980 C.ar    1  UNL1        0.0135
     31 C          60.9842   86.0097    9.1321 C.ar    1  UNL1       -0.0012
     32 C          61.0913   86.0656    7.6370 C.ar    1  UNL1       -0.0002
     33 C          60.7548   87.3325    6.9078 C.ar    1  UNL1        0.0016
     34 C          60.3112   88.5435    7.6737 C.ar    1  UNL1        0.0214
     35 C          59.9159   89.9213    7.2319 C.ar    1  UNL1        0.0731
     36 C          59.5645   90.7170    8.4539 C.ar    1  UNL1        0.0805
     37 N          59.7426   89.8310    9.6510 N.ar    1  UNL1       -0.3241
     38 C          59.5016   90.2199   11.0795 C.3     1  UNL1        0.1305
     39 C          60.2041   88.4876    9.1688 C.ar    1  UNL1        0.0577
     40 C          59.8786   90.4166    5.8164 C.2     1  UNL1        0.2605
     41 O          58.6998   90.1035    4.9431 O.2     1  UNL1       -0.2688
     42 N          61.0199   91.2249    5.2743 N.am    1  UNL1       -0.2428
     43 H          61.7935   91.4304    5.8475 H       1  UNL1        0.1696
     44 N          60.9826   91.7201    3.8589 N.3     1  UNL1       -0.2022
     45 C          62.1693   91.5210    2.9633 C.3     1  UNL1        0.1133
     46 C          62.1321   92.0162    1.5479 C.3     1  UNL1        0.1113
     47 N          60.9083   92.7105    1.0281 N.pl3   1  UNL1       -0.2903
     48 C          59.7216   92.9097    1.9238 C.3     1  UNL1        0.1113
     49 C          59.7588   92.4145    3.3392 C.3     1  UNL1        0.1133
     50 C          60.8710   93.2058   -0.3872 C.ar    1  UNL1        0.1318
     51 C          62.1273   93.6972   -1.0432 C.ar    1  UNL1        0.0343
     52 C          62.0901   94.1924   -2.4586 C.ar    1  UNL1        0.0045
     53 C          60.7966   94.1963   -3.2181 C.ar    1  UNL1        0.0208
     54 C          59.5403   93.7050   -2.5622 C.ar    1  UNL1        0.1003
     55 N          59.5775   93.2097   -1.1467 N.ar    1  UNL1       -0.2292
     56 C          64.4792   93.4797   11.4670 C.3     1  UNL1        0.1177
     57 C          65.4800   94.1967   10.6101 C.ar    1  UNL1       -0.0025
     58 C          65.3626   95.6770   10.3988 C.ar    1  UNL1       -0.0026
     59 C          66.3634   96.3940    9.5419 C.ar    1  UNL1       -0.0003
     60 C          67.4816   95.6306    8.8963 C.ar    1  UNL1       -0.0000
     61 C          67.5991   94.1502    9.1076 C.ar    1  UNL1       -0.0003
     62 C          66.5983   93.4332    9.9645 C.ar    1  UNL1       -0.0026
@<TRIPOS>BOND
     1    18    19    2
     2    19    17    1
     3    17     1    1
     4     1     2    1
     5     2     3    1
     6     3     4    2
     7     3     5   am
     8     5     6    1
     9     6    20    1
    10    20    21    1
    11    21    22   ar
    12    22    23   ar
    13    23    24   ar
    14    24    25    1
    15    24    26   ar
    16    26    27   ar
    17     6     7    1
    18     7     8    2
    19     7     9   am
    20     9    29    1
    21    29    30    1
    22    30    31   ar
    23    31    32   ar
    24    32    33   ar
    25    33    34   ar
    26    34    35   ar
    27    35    40    1
    28    40    41    2
    29    40    42   am
    30    42    44    1
    31    44    45    1
    32    45    46    1
    33    46    47    1
    34    47    50    1
    35    50    51   ar
    36    51    52   ar
    37    52    53   ar
    38    53    54   ar
    39    54    55   ar
    40    47    48    1
    41    48    49    1
    42    35    36   ar
    43    36    37   ar
    44    37    38    1
    45    37    39   ar
    46     9    10    1
    47    11    10    1
    48    11    12    1
    49    12    13   am
    50    13    14    2
    51    13    15   am
    52    15    56    1
    53    56    57    1
    54    57    58   ar
    55    58    59   ar
    56    59    60   ar
    57    60    61   ar
    58    61    62   ar
    59    12     1    1
    60    62    57   ar
    61    11     5    1
    62    27    21   ar
    63    39    30   ar
    64    39    34   ar
    65    49    44    1
    66    55    50   ar
    67    25    28    1
    68    42    43    1
    69    15    16    1
@<TRIPOS>MOLECULE
*****
 62 69 0 0 0
SMALL
GASTEIGER

@<TRIPOS>ATOM
      1 N          65.6839   89.5431   14.4219 N.3     1  UNL1       -0.1862
      2 C          65.9920   88.3220   15.2365 C.3     1  UNL1        0.1775
      3 C          65.1921   87.0682   15.0408 C.2     1  UNL1        0.2452
      4 O          65.5003   85.8470   15.8555 O.2     1  UNL1       -0.2732
      5 N          64.0841   87.0357   14.0303 N.am    1  UNL1       -0.2541
      6 C          63.2842   85.7820   13.8345 C.3     1  UNL1        0.1577
      7 C          62.1761   85.7494   12.8240 C.2     1  UNL1        0.2445
      8 O          61.3762   84.4957   12.6282 O.2     1  UNL1       -0.2731
      9 N          61.8679   86.9706   12.0092 N.am    1  UNL1       -0.2705
     10 C          62.6679   88.2243   12.2050 C.3     1  UNL1        0.1359
     11 C          63.7760   88.2568   13.2156 C.3     1  UNL1        0.1908
     12 N          64.5759   89.5106   13.4114 N.am    1  UNL1       -0.1863
     13 C          64.2677   90.7318   12.5966 C.2     1  UNL1        0.3191
     14 O          63.1596   90.6992   11.5861 O.2     1  UNL1       -0.2512
     15 N          65.0676   91.9855   12.7924 N.am    1  UNL1       -0.2836
     16 H          65.7949   92.0068   13.4556 H       1  UNL1        0.1513
     17 C          66.4838   90.7968   14.6176 C.3     1  UNL1        0.1188
     18 C          67.0327   92.8370   16.1298 C.2     1  UNL1       -0.0034
     19 C          66.0585   91.8054   15.6433 C.2     1  UNL1       -0.0071
     20 C          63.5923   84.5608   14.6492 C.3     1  UNL1        0.0556
     21 C          63.2949   83.1974   14.0989 C.ar    1  UNL1       -0.0198
     22 C          62.1384   82.4077   14.6361 C.ar    1  UNL1       -0.0011
     23 C          61.8410   81.0443   14.0859 C.ar    1  UNL1        0.0363
     24 C          62.7002   80.4707   12.9984 C.ar    1  UNL1        0.1337
     25 O          62.4029   79.1073   12.4482 O.3     1  UNL1       -0.5055
     26 C          63.8569   81.2604   12.4612 C.ar    1  UNL1        0.0363
     27 C          64.1542   82.6238   13.0114 C.ar    1  UNL1       -0.0011
     28 H          61.6804   78.6140   12.7838 H       1  UNL1        0.2922
     29 C          60.7599   86.9381   10.9987 C.3     1  UNL1        0.1217
     30 C          60.3651   88.1929   10.2779 C.ar    1  UNL1        0.0135
     31 C          60.0083   89.4244   11.0564 C.ar    1  UNL1       -0.0012
     32 C          59.6135   90.6792   10.3356 C.ar    1  UNL1       -0.0002
     33 C          59.5755   90.7025    8.8363 C.ar    1  UNL1        0.0016
     34 C          59.9324   89.4710    8.0578 C.ar    1  UNL1        0.0214
     35 C          59.9854   89.1953    6.5843 C.ar    1  UNL1        0.0731
     36 C          60.4130   87.7702    6.3944 C.ar    1  UNL1        0.0805
     37 N          60.6242   87.1651    7.7505 N.ar    1  UNL1       -0.3241
     38 C          61.0566   85.7561    8.0297 C.3     1  UNL1        0.1305
     39 C          60.3271   88.2162    8.7786 C.ar    1  UNL1        0.0577
     40 C          59.6668   90.1733    5.4923 C.2     1  UNL1        0.2605
     41 O          58.2388   90.4468    5.1237 O.2     1  UNL1       -0.2688
     42 N          60.7763   90.8775    4.7690 N.am    1  UNL1       -0.2428
     43 H          61.7135   90.6979    5.0110 H       1  UNL1        0.1696
     44 N          60.4578   91.8554    3.6771 N.3     1  UNL1       -0.2022
     45 C          59.0322   92.0932    3.2757 C.3     1  UNL1        0.1133
     46 C          58.7136   93.0710    2.1838 C.3     1  UNL1        0.1113
     47 N          59.8206   93.8111    1.4933 N.pl3   1  UNL1       -0.2903
     48 C          61.2462   93.5733    1.8947 C.3     1  UNL1        0.1113
     49 C          61.5648   92.5954    2.9866 C.3     1  UNL1        0.1133
     50 C          59.5021   94.7889    0.4014 C.ar    1  UNL1        0.1318
     51 C          58.2088   94.6786   -0.3505 C.ar    1  UNL1        0.0343
     52 C          57.8902   95.6564   -1.4424 C.ar    1  UNL1        0.0045
     53 C          58.8649   96.7446   -1.7826 C.ar    1  UNL1        0.0208
     54 C          60.1582   96.8550   -1.0308 C.ar    1  UNL1        0.1003
     55 N          60.4768   95.8771    0.0612 N.ar    1  UNL1       -0.2292
     56 C          64.7595   93.2066   11.9777 C.3     1  UNL1        0.1177
     57 C          65.7510   93.7048   10.9684 C.ar    1  UNL1       -0.0025
     58 C          66.7960   92.7773   10.4227 C.ar    1  UNL1       -0.0026
     59 C          67.7876   93.2754    9.4134 C.ar    1  UNL1       -0.0003
     60 C          67.7342   94.7010    8.9498 C.ar    1  UNL1       -0.0000
     61 C          66.6892   95.6285    9.4956 C.ar    1  UNL1       -0.0003
     62 C          65.6976   95.1304   10.5048 C.ar    1  UNL1       -0.0026
@<TRIPOS>BOND
     1    18    19    2
     2    19    17    1
     3    17     1    1
     4     1     2    1
     5     2     3    1
     6     3     4    2
     7     3     5   am
     8     5     6    1
     9     6    20    1
    10    20    21    1
    11    21    22   ar
    12    22    23   ar
    13    23    24   ar
    14    24    25    1
    15    24    26   ar
    16    26    27   ar
    17     6     7    1
    18     7     8    2
    19     7     9   am
    20     9    29    1
    21    29    30    1
    22    30    31   ar
    23    31    32   ar
    24    32    33   ar
    25    33    34   ar
    26    34    35   ar
    27    35    40    1
    28    40    41    2
    29    40    42   am
    30    42    44    1
    31    44    45    1
    32    45    46    1
    33    46    47    1
    34    47    50    1
    35    50    51   ar
    36    51    52   ar
    37    52    53   ar
    38    53    54   ar
    39    54    55   ar
    40    47    48    1
    41    48    49    1
    42    35    36   ar
    43    36    37   ar
    44    37    38    1
    45    37    39   ar
    46     9    10    1
    47    11    10    1
    48    11    12    1
    49    12    13   am
    50    13    14    2
    51    13    15   am
    52    15    56    1
    53    56    57    1
    54    57    58   ar
    55    58    59   ar
    56    59    60   ar
    57    60    61   ar
    58    61    62   ar
    59    12     1    1
    60    62    57   ar
    61    11     5    1
    62    27    21   ar
    63    39    30   ar
    64    39    34   ar
    65    49    44    1
    66    55    50   ar
    67    25    28    1
    68    42    43    1
    69    15    16    1
@<TRIPOS>MOLECULE
*****
 62 69 0 0 0
SMALL
GASTEIGER

@<TRIPOS>ATOM
      1 N          64.5662   83.1799   13.2932 N.3     1  UNL1       -0.1862
      2 C          65.1848   84.0412   14.3541 C.3     1  UNL1        0.1775
      3 C          64.7682   85.4755   14.4930 C.2     1  UNL1        0.2452
      4 O          65.3870   86.3367   15.5539 O.2     1  UNL1       -0.2732
      5 N          63.7330   86.0485   13.5712 N.am    1  UNL1       -0.2541
      6 C          63.3164   87.4827   13.7102 C.3     1  UNL1        0.1577
      7 C          62.2811   88.0557   12.7883 C.2     1  UNL1        0.2445
      8 O          61.8645   89.4900   12.9273 O.2     1  UNL1       -0.2731
      9 N          61.6624   87.1944   11.7274 N.am    1  UNL1       -0.2705
     10 C          62.0790   85.7602   11.5885 C.3     1  UNL1        0.1359
     11 C          63.1143   85.1872   12.5104 C.3     1  UNL1        0.1908
     12 N          63.5309   83.7529   12.3714 N.am    1  UNL1       -0.1863
     13 C          62.9121   82.8916   11.3105 C.2     1  UNL1        0.3191
     14 O          61.8769   83.4646   10.3886 O.2     1  UNL1       -0.2512
     15 N          63.3287   81.4574   11.1715 N.am    1  UNL1       -0.2836
     16 H          64.0082   81.0813   11.7766 H       1  UNL1        0.1513
     17 C          64.9828   81.7456   13.1542 C.3     1  UNL1        0.1188
     18 C          62.8074   80.8867   14.2855 C.2     1  UNL1       -0.0034
     19 C          64.2400   80.6737   13.8953 C.2     1  UNL1       -0.0071
     20 C          63.9351   88.3440   14.7710 C.3     1  UNL1        0.0556
     21 C          64.4478   89.7101   14.4234 C.ar    1  UNL1       -0.0198
     22 C          64.4724   90.1603   12.9928 C.ar    1  UNL1       -0.0011
     23 C          64.9851   91.5264   12.6451 C.ar    1  UNL1        0.0363
     24 C          65.4732   92.4424   13.7281 C.ar    1  UNL1        0.1337
     25 O          65.9859   93.8085   13.3804 O.3     1  UNL1       -0.5055
     26 C          65.4485   91.9922   15.1588 C.ar    1  UNL1        0.0363
     27 C          64.9358   90.6261   15.5064 C.ar    1  UNL1       -0.0011
     28 H          66.0013   94.0897   12.4867 H       1  UNL1        0.2922
     29 C          60.6271   87.7674   10.8056 C.3     1  UNL1        0.1217
     30 C          60.9870   88.8914    9.8797 C.ar    1  UNL1        0.0135
     31 C          62.0286   89.8921   10.2843 C.ar    1  UNL1       -0.0012
     32 C          62.3885   91.0160    9.3584 C.ar    1  UNL1       -0.0002
     33 C          61.7067   91.1393    8.0281 C.ar    1  UNL1        0.0016
     34 C          60.6650   90.1387    7.6235 C.ar    1  UNL1        0.0214
     35 C          59.8299   90.0043    6.3848 C.ar    1  UNL1        0.0731
     36 C          58.9539   88.7973    6.5450 C.ar    1  UNL1        0.0805
     37 N          59.2476   88.1857    7.8828 N.ar    1  UNL1       -0.3241
     38 C          58.5979   86.9602    8.4538 C.3     1  UNL1        0.1305
     39 C          60.3052   89.0147    8.5493 C.ar    1  UNL1        0.0577
     40 C          59.8647   90.9168    5.1947 C.2     1  UNL1        0.2605
     41 O          58.5877   91.4753    4.6402 O.2     1  UNL1       -0.2688
     42 N          61.1765   91.2707    4.5591 N.am    1  UNL1       -0.2428
     43 H          62.0146   90.9041    4.9230 H       1  UNL1        0.1696
     44 N          61.2113   92.1831    3.3690 N.3     1  UNL1       -0.2022
     45 C          62.4393   92.2487    2.5101 C.3     1  UNL1        0.1133
     46 C          62.4742   93.1611    1.3200 C.3     1  UNL1        0.1113
     47 N          61.2812   94.0079    0.9889 N.pl3   1  UNL1       -0.2903
     48 C          60.0532   93.9423    1.8478 C.3     1  UNL1        0.1113
     49 C          60.0183   93.0299    3.0379 C.3     1  UNL1        0.1133
     50 C          61.3161   94.9203   -0.2012 C.ar    1  UNL1        0.1318
     51 C          62.6322   95.3556   -0.7743 C.ar    1  UNL1        0.0343
     52 C          62.6672   96.2680   -1.9643 C.ar    1  UNL1        0.0045
     53 C          61.3860   96.7453   -2.5813 C.ar    1  UNL1        0.0208
     54 C          60.0698   96.3101   -2.0083 C.ar    1  UNL1        0.1003
     55 N          60.0349   95.3976   -0.8182 N.ar    1  UNL1       -0.2292
     56 C          62.7101   80.5961   10.1107 C.3     1  UNL1        0.1177
     57 C          63.0813   79.1462   10.0109 C.ar    1  UNL1       -0.0025
     58 C          62.5203   78.1592   10.9912 C.ar    1  UNL1       -0.0026
     59 C          62.8915   76.7093   10.8913 C.ar    1  UNL1       -0.0003
     60 C          63.8237   76.2464    9.8112 C.ar    1  UNL1       -0.0000
     61 C          64.3847   77.2334    8.8308 C.ar    1  UNL1       -0.0003
     62 C          64.0135   78.6833    8.9307 C.ar    1  UNL1       -0.0026
@<TRIPOS>BOND
     1    18    19    2
     2    19    17    1
     3    17     1    1
     4     1     2    1
     5     2     3    1
     6     3     4    2
     7     3     5   am
     8     5     6    1
     9     6    20    1
    10    20    21    1
    11    21    22   ar
    12    22    23   ar
    13    23    24   ar
    14    24    25    1
    15    24    26   ar
    16    26    27   ar
    17     6     7    1
    18     7     8    2
    19     7     9   am
    20     9    29    1
    21    29    30    1
    22    30    31   ar
    23    31    32   ar
    24    32    33   ar
    25    33    34   ar
    26    34    35   ar
    27    35    40    1
    28    40    41    2
    29    40    42   am
    30    42    44    1
    31    44    45    1
    32    45    46    1
    33    46    47    1
    34    47    50    1
    35    50    51   ar
    36    51    52   ar
    37    52    53   ar
    38    53    54   ar
    39    54    55   ar
    40    47    48    1
    41    48    49    1
    42    35    36   ar
    43    36    37   ar
    44    37    38    1
    45    37    39   ar
    46     9    10    1
    47    11    10    1
    48    11    12    1
    49    12    13   am
    50    13    14    2
    51    13    15   am
    52    15    56    1
    53    56    57    1
    54    57    58   ar
    55    58    59   ar
    56    59    60   ar
    57    60    61   ar
    58    61    62   ar
    59    12     1    1
    60    62    57   ar
    61    11     5    1
    62    27    21   ar
    63    39    30   ar
    64    39    34   ar
    65    49    44    1
    66    55    50   ar
    67    25    28    1
    68    42    43    1
    69    15    16    1
