@<TRIPOS>MOLECULE
*****
 26 29 0 0 0
SMALL
GASTEIGER

@<TRIPOS>ATOM
      1 N          64.1541   90.7267   12.9443 N.ar    1  UNL1       -0.2690
      2 C          63.3743   90.7909   11.6645 C.ar    1  UNL1        0.1974
      3 N          63.9999   91.8388   10.7925 N.ar    1  UNL1       -0.1218
      4 N          65.1664   92.4224   11.5333 N.ar    1  UNL1       -0.1279
      5 C          65.2617   91.7351   12.8631 C.ar    1  UNL1        0.1707
      6 BR         63.0391   87.0776   17.5747 Br      1  UNL1       -0.0490
      7 C          63.3179   87.9899   16.4171 C.ar    1  UNL1        0.0347
      8 C          63.9867   87.4557   15.1853 C.ar    1  UNL1        0.0082
      9 C          64.2655   88.3680   14.0277 C.ar    1  UNL1        0.0181
     10 C          63.8754   89.8144   14.1019 C.ar    1  UNL1        0.0673
     11 C          63.2065   90.3486   15.3336 C.ar    1  UNL1        0.0181
     12 C          62.9278   89.4363   16.4912 C.ar    1  UNL1        0.0082
     13 C          66.2849   92.0082   13.9254 C.ar    1  UNL1        0.0394
     14 C          67.7434   91.8226   13.6273 C.ar    1  UNL1        0.0237
     15 C          68.7666   92.0957   14.6896 C.ar    1  UNL1        0.0990
     16 N          68.3316   92.5544   16.0498 N.ar    1  UNL1       -0.2423
     17 C          66.8732   92.7400   16.3478 C.ar    1  UNL1        0.0990
     18 C          65.8500   92.4669   15.2856 C.ar    1  UNL1        0.0237
     19 S          62.1788   89.9540   11.3177 S.3     1  UNL1       -0.0705
     20 C          62.3652   88.5931   10.7151 C.3     1  UNL1        0.0914
     21 C          61.4085   88.0974    9.6715 C.ar    1  UNL1       -0.0109
     22 C          61.3890   86.6439    9.3017 C.ar    1  UNL1       -0.0034
     23 C          60.4323   86.1482    8.2582 C.ar    1  UNL1       -0.0003
     24 C          59.4951   87.1061    7.5844 C.ar    1  UNL1       -0.0000
     25 C          59.5146   88.5596    7.9541 C.ar    1  UNL1       -0.0003
     26 C          60.4712   89.0553    8.9977 C.ar    1  UNL1       -0.0034
@<TRIPOS>BOND
     1     6     7    1
     2     7     8   ar
     3     8     9   ar
     4     9    10   ar
     5    10     1    1
     6     1     2   ar
     7     2    19    1
     8    19    20    1
     9    20    21    1
    10    21    22   ar
    11    22    23   ar
    12    23    24   ar
    13    24    25   ar
    14    25    26   ar
    15     2     3   ar
    16     3     4   ar
    17     4     5   ar
    18     5    13    1
    19    13    14   ar
    20    14    15   ar
    21    15    16   ar
    22    16    17   ar
    23    17    18   ar
    24    10    11   ar
    25    11    12   ar
    26    12     7   ar
    27     5     1   ar
    28    18    13   ar
    29    26    21   ar
@<TRIPOS>MOLECULE
*****
 26 29 0 0 0
SMALL
GASTEIGER

@<TRIPOS>ATOM
      1 N          64.0778   90.6264   12.9721 N.ar    1  UNL1       -0.2690
      2 C          63.2852   90.6664   11.6992 C.ar    1  UNL1        0.1974
      3 N          63.8885   91.7132   10.8102 N.ar    1  UNL1       -0.1218
      4 N          65.0539   92.3201   11.5336 N.ar    1  UNL1       -0.1279
      5 C          65.1709   91.6485   12.8697 C.ar    1  UNL1        0.1707
      6 BR         63.0550   87.0128   17.6514 Br      1  UNL1       -0.0490
      7 C          63.3107   87.9162   16.4816 C.ar    1  UNL1        0.0347
      8 C          64.0114   87.3880   15.2651 C.ar    1  UNL1        0.0082
      9 C          64.2671   88.2914   14.0953 C.ar    1  UNL1        0.0181
     10 C          63.8221   89.7230   14.1419 C.ar    1  UNL1        0.0673
     11 C          63.1213   90.2513   15.3584 C.ar    1  UNL1        0.0181
     12 C          62.8656   89.3479   16.5282 C.ar    1  UNL1        0.0082
     13 C          66.2003   91.9466   13.9193 C.ar    1  UNL1        0.0394
     14 C          65.7707   92.3832   15.2886 C.ar    1  UNL1        0.0237
     15 C          66.8001   92.6813   16.3381 C.ar    1  UNL1        0.0990
     16 N          68.2591   92.5428   16.0184 N.ar    1  UNL1       -0.2423
     17 C          68.6886   92.1062   14.6491 C.ar    1  UNL1        0.0990
     18 C          67.6592   91.8081   13.5996 C.ar    1  UNL1        0.0237
     19 S          62.0978   89.8100   11.3727 S.3     1  UNL1       -0.0705
     20 C          62.0967   88.9722   10.1286 C.3     1  UNL1        0.0914
     21 C          62.3322   87.4936   10.2198 C.ar    1  UNL1       -0.0109
     22 C          62.3380   86.8163   11.5581 C.ar    1  UNL1       -0.0034
     23 C          62.5735   85.3377   11.6494 C.ar    1  UNL1       -0.0003
     24 C          62.8031   84.5364   10.4023 C.ar    1  UNL1       -0.0000
     25 C          62.7972   85.2137    9.0640 C.ar    1  UNL1       -0.0003
     26 C          62.5618   86.6923    8.9727 C.ar    1  UNL1       -0.0034
@<TRIPOS>BOND
     1     6     7    1
     2     7     8   ar
     3     8     9   ar
     4     9    10   ar
     5    10     1    1
     6     1     2   ar
     7     2    19    1
     8    19    20    1
     9    20    21    1
    10    21    22   ar
    11    22    23   ar
    12    23    24   ar
    13    24    25   ar
    14    25    26   ar
    15     2     3   ar
    16     3     4   ar
    17     4     5   ar
    18     5    13    1
    19    13    14   ar
    20    14    15   ar
    21    15    16   ar
    22    16    17   ar
    23    17    18   ar
    24    10    11   ar
    25    11    12   ar
    26    12     7   ar
    27     5     1   ar
    28    18    13   ar
    29    26    21   ar
@<TRIPOS>MOLECULE
*****
 26 29 0 0 0
SMALL
GASTEIGER

@<TRIPOS>ATOM
      1 N          62.9496   86.7409   12.3254 N.ar    1  UNL1       -0.2690
      2 C          63.4456   88.0036   12.9652 C.ar    1  UNL1        0.1974
      3 N          64.2327   87.6269   14.1853 N.ar    1  UNL1       -0.1218
      4 N          64.2230   86.1313   14.2996 N.ar    1  UNL1       -0.1279
      5 C          63.4300   85.5837   13.1501 C.ar    1  UNL1        0.1707
      6 BR         59.6269   86.3815    7.3424 Br      1  UNL1       -0.0490
      7 C          60.4576   86.4713    8.5881 C.ar    1  UNL1        0.0347
      8 C          59.9105   87.1537    9.8067 C.ar    1  UNL1        0.0082
      9 C          60.7412   87.2435   11.0525 C.ar    1  UNL1        0.0181
     10 C          62.1189   86.6510   11.0797 C.ar    1  UNL1        0.0673
     11 C          62.6659   85.9686    9.8610 C.ar    1  UNL1        0.0181
     12 C          61.8353   85.8788    8.6153 C.ar    1  UNL1        0.0082
     13 C          63.1642   84.1335   12.8739 C.ar    1  UNL1        0.0394
     14 C          62.3313   83.3288   13.8273 C.ar    1  UNL1        0.0237
     15 C          62.0655   81.8786   13.5510 C.ar    1  UNL1        0.0990
     16 N          62.6325   81.2331   12.3215 N.ar    1  UNL1       -0.2423
     17 C          63.4653   82.0378   11.3681 C.ar    1  UNL1        0.0990
     18 C          63.7311   83.4880   11.6444 C.ar    1  UNL1        0.0237
     19 S          63.1981   89.3983   12.4716 S.3     1  UNL1       -0.0705
     20 C          63.3844   90.5651   13.3955 C.3     1  UNL1        0.0914
     21 C          64.7278   91.2220   13.5128 C.ar    1  UNL1       -0.0109
     22 C          65.6135   90.9141   14.6836 C.ar    1  UNL1       -0.0034
     23 C          66.9569   91.5711   14.8009 C.ar    1  UNL1       -0.0003
     24 C          67.4145   92.5358   13.7474 C.ar    1  UNL1       -0.0000
     25 C          66.5288   92.8437   12.5767 C.ar    1  UNL1       -0.0003
     26 C          65.1854   92.1867   12.4594 C.ar    1  UNL1       -0.0034
@<TRIPOS>BOND
     1     6     7    1
     2     7     8   ar
     3     8     9   ar
     4     9    10   ar
     5    10     1    1
     6     1     2   ar
     7     2    19    1
     8    19    20    1
     9    20    21    1
    10    21    22   ar
    11    22    23   ar
    12    23    24   ar
    13    24    25   ar
    14    25    26   ar
    15     2     3   ar
    16     3     4   ar
    17     4     5   ar
    18     5    13    1
    19    13    14   ar
    20    14    15   ar
    21    15    16   ar
    22    16    17   ar
    23    17    18   ar
    24    10    11   ar
    25    11    12   ar
    26    12     7   ar
    27     5     1   ar
    28    18    13   ar
    29    26    21   ar
@<TRIPOS>MOLECULE
*****
 26 29 0 0 0
SMALL
GASTEIGER

@<TRIPOS>ATOM
      1 N          62.9763   86.6990   12.3680 N.ar    1  UNL1       -0.2690
      2 C          63.4675   87.9587   13.0176 C.ar    1  UNL1        0.1974
      3 N          64.2497   87.5760   14.2389 N.ar    1  UNL1       -0.1218
      4 N          64.2419   86.0797   14.3442 N.ar    1  UNL1       -0.1279
      5 C          63.4550   85.5377   13.1880 C.ar    1  UNL1        0.1707
      6 BR         59.6765   86.3642    7.3681 Br      1  UNL1       -0.0490
      7 C          60.5015   86.4479    8.6181 C.ar    1  UNL1        0.0347
      8 C          61.8656   85.8257    8.6595 C.ar    1  UNL1        0.0082
      9 C          62.6906   85.9094    9.9094 C.ar    1  UNL1        0.0181
     10 C          62.1514   86.6153   11.1181 C.ar    1  UNL1        0.0673
     11 C          60.7872   87.2376   11.0767 C.ar    1  UNL1        0.0181
     12 C          59.9622   87.1539    9.8267 C.ar    1  UNL1        0.0082
     13 C          63.1927   84.0888   12.9019 C.ar    1  UNL1        0.0394
     14 C          63.8093   83.4382   11.6991 C.ar    1  UNL1        0.0237
     15 C          63.5470   81.9893   11.4130 C.ar    1  UNL1        0.0990
     16 N          62.6682   81.1909   12.3296 N.ar    1  UNL1       -0.2423
     17 C          62.0516   81.8415   13.5323 C.ar    1  UNL1        0.0990
     18 C          62.3139   83.2904   13.8184 C.ar    1  UNL1        0.0237
     19 S          63.2200   89.3559   12.5312 S.3     1  UNL1       -0.0705
     20 C          63.6891   90.5268   13.3428 C.3     1  UNL1        0.0914
     21 C          64.5931   91.5528   12.7262 C.ar    1  UNL1       -0.0109
     22 C          64.4511   91.9020   11.2743 C.ar    1  UNL1       -0.0034
     23 C          65.3551   92.9279   10.6577 C.ar    1  UNL1       -0.0003
     24 C          66.4011   93.6048   11.4930 C.ar    1  UNL1       -0.0000
     25 C          66.5431   93.2556   12.9449 C.ar    1  UNL1       -0.0003
     26 C          65.6392   92.2296   13.5615 C.ar    1  UNL1       -0.0034
@<TRIPOS>BOND
     1     6     7    1
     2     7     8   ar
     3     8     9   ar
     4     9    10   ar
     5    10     1    1
     6     1     2   ar
     7     2    19    1
     8    19    20    1
     9    20    21    1
    10    21    22   ar
    11    22    23   ar
    12    23    24   ar
    13    24    25   ar
    14    25    26   ar
    15     2     3   ar
    16     3     4   ar
    17     4     5   ar
    18     5    13    1
    19    13    14   ar
    20    14    15   ar
    21    15    16   ar
    22    16    17   ar
    23    17    18   ar
    24    10    11   ar
    25    11    12   ar
    26    12     7   ar
    27     5     1   ar
    28    18    13   ar
    29    26    21   ar
@<TRIPOS>MOLECULE
*****
 26 29 0 0 0
SMALL
GASTEIGER

@<TRIPOS>ATOM
      1 N          62.8745   85.6857   11.7512 N.ar    1  UNL1       -0.2690
      2 C          63.4205   86.4773   12.9024 C.ar    1  UNL1        0.1974
      3 N          63.1478   87.9284   12.6380 N.ar    1  UNL1       -0.1218
      4 N          62.4333   88.0337   11.3233 N.ar    1  UNL1       -0.1279
      5 C          62.2644   86.6476   10.7753 C.ar    1  UNL1        0.1707
      6 BR         63.0929   79.7194   11.1546 Br      1  UNL1       -0.0490
      7 C          63.0383   81.2110   11.3038 C.ar    1  UNL1        0.0347
      8 C          62.2322   81.8252   12.4096 C.ar    1  UNL1        0.0082
      9 C          62.1777   83.3167   12.5588 C.ar    1  UNL1        0.0181
     10 C          62.9291   84.1941   11.6020 C.ar    1  UNL1        0.0673
     11 C          63.7352   83.5800   10.4962 C.ar    1  UNL1        0.0181
     12 C          63.7898   82.0884   10.3470 C.ar    1  UNL1        0.0082
     13 C          61.6017   86.2869    9.4788 C.ar    1  UNL1        0.0394
     14 C          60.1741   86.6762    9.2324 C.ar    1  UNL1        0.0237
     15 C          59.5115   86.3154    7.9360 C.ar    1  UNL1        0.0990
     16 N          60.2762   85.5654    6.8860 N.ar    1  UNL1       -0.2423
     17 C          61.7037   85.1762    7.1324 C.ar    1  UNL1        0.0990
     18 C          62.3664   85.5369    8.4288 C.ar    1  UNL1        0.0237
     19 S          64.1169   85.9162   14.1067 S.3     1  UNL1       -0.0705
     20 C          63.9589   86.5809   15.4420 C.3     1  UNL1        0.0914
     21 C          63.9995   88.0769   15.5446 C.ar    1  UNL1       -0.0109
     22 C          63.1737   88.7802   16.5806 C.ar    1  UNL1       -0.0034
     23 C          63.2142   90.2762   16.6833 C.ar    1  UNL1       -0.0003
     24 C          64.0806   91.0688   15.7500 C.ar    1  UNL1       -0.0000
     25 C          64.9064   90.3654   14.7140 C.ar    1  UNL1       -0.0003
     26 C          64.8659   88.8695   14.6113 C.ar    1  UNL1       -0.0034
@<TRIPOS>BOND
     1     6     7    1
     2     7     8   ar
     3     8     9   ar
     4     9    10   ar
     5    10     1    1
     6     1     2   ar
     7     2    19    1
     8    19    20    1
     9    20    21    1
    10    21    22   ar
    11    22    23   ar
    12    23    24   ar
    13    24    25   ar
    14    25    26   ar
    15     2     3   ar
    16     3     4   ar
    17     4     5   ar
    18     5    13    1
    19    13    14   ar
    20    14    15   ar
    21    15    16   ar
    22    16    17   ar
    23    17    18   ar
    24    10    11   ar
    25    11    12   ar
    26    12     7   ar
    27     5     1   ar
    28    18    13   ar
    29    26    21   ar
