@<TRIPOS>MOLECULE
*****
 39 43 0 0 0
SMALL
GASTEIGER

@<TRIPOS>ATOM
      1 N          63.7609   84.5716   15.2351 N.3     1  UNL1       -0.2682
      2 C          64.5449   85.6772   14.5925 C.3     1  UNL1        0.0897
      3 C          64.3492   87.0948   15.0419 C.3     1  UNL1        0.0900
      4 N          63.3694   87.4068   16.1340 N.3     1  UNL1       -0.2626
      5 C          62.5854   86.3012   16.7767 C.3     1  UNL1        0.0900
      6 C          62.7811   84.8836   16.3272 C.3     1  UNL1        0.0897
      7 C          63.9566   83.1539   14.7856 C.3     1  UNL1        0.1056
      8 C          62.8198   82.4020   14.1594 C.3     1  UNL1        0.1700
      9 O          61.7642   81.7806   15.0254 O.3     1  UNL1       -0.3793
     10 H          61.9655   81.9574   15.9577 H       1  UNL1        0.2106
     11 C          62.7385   82.2713   12.6674 C.3     1  UNL1        0.2358
     12 O          63.6229   83.1086   11.7918 O.3     1  UNL1       -0.4727
     13 C          59.9317   89.9148   10.4976 C.3     1  UNL1        0.0594
     14 C          60.6854   88.6183   10.4610 C.ar    1  UNL1        0.0886
     15 N          60.9826   87.7378   11.6384 N.ar    1  UNL1       -0.2426
     16 C          61.7550   86.5501   11.1458 C.ar    1  UNL1        0.0905
     17 C          62.3175   85.3541   11.8551 C.ar    1  UNL1        0.0565
     18 C          63.0603   84.3047   11.0825 C.ar    1  UNL1        0.1402
     19 C          63.2406   84.4512    9.6006 C.ar    1  UNL1        0.0375
     20 C          62.6781   85.6472    8.8913 C.ar    1  UNL1        0.0111
     21 C          61.9353   86.6966    9.6639 C.ar    1  UNL1        0.0484
     22 S          61.2742   87.9749    9.2407 S.2     1  UNL1       -0.0708
     23 C          63.1737   88.8245   16.5835 C.3     1  UNL1        0.1588
     24 C          63.6687   89.9562   15.7326 C.2     1  UNL1        0.2425
     25 O          63.4926   91.3731   16.1925 O.2     1  UNL1       -0.2733
     26 N          64.3398   89.6711   14.4218 N.am    1  UNL1       -0.2828
     27 H          64.4554   88.7412   14.1199 H       1  UNL1        0.1549
     28 C          64.8349   90.8028   13.5708 C.ar    1  UNL1        0.0503
     29 C          66.0172   91.6127   14.0137 C.ar    1  UNL1        0.0147
     30 C          66.5123   92.7444   13.1628 C.ar    1  UNL1        0.0013
     31 C          65.8250   93.0663   11.8690 C.ar    1  UNL1        0.0001
     32 C          64.6426   92.2565   11.4261 C.ar    1  UNL1        0.0013
     33 C          64.1476   91.1247   12.2770 C.ar    1  UNL1        0.0147
     34 C          66.3200   94.1981   11.0180 C.ar    1  UNL1        0.0000
     35 C          67.0233   93.9118    9.7244 C.ar    1  UNL1        0.0000
     36 C          67.5184   95.0436    8.8735 C.ar    1  UNL1        0.0000
     37 C          67.3101   96.4615    9.3161 C.ar    1  UNL1        0.0000
     38 C          66.6068   96.7478   10.6097 C.ar    1  UNL1        0.0000
     39 C          66.1118   95.6160   11.4607 C.ar    1  UNL1        0.0000
@<TRIPOS>BOND
     1    13    14    1
     2    14    15   ar
     3    15    16   ar
     4    16    17   ar
     5    17    18   ar
     6    18    12    1
     7    12    11    1
     8    11     8    1
     9     8     9    1
    10     8     7    1
    11     7     1    1
    12     1     2    1
    13     2     3    1
    14     3     4    1
    15     4    23    1
    16    23    24    1
    17    24    25    2
    18    24    26   am
    19    26    28    1
    20    28    29   ar
    21    29    30   ar
    22    30    31   ar
    23    31    34    1
    24    34    35   ar
    25    35    36   ar
    26    36    37   ar
    27    37    38   ar
    28    38    39   ar
    29    31    32   ar
    30    32    33   ar
    31     4     5    1
    32     5     6    1
    33    18    19   ar
    34    19    20   ar
    35    20    21   ar
    36    21    22   ar
    37    22    14   ar
    38    21    16   ar
    39     6     1    1
    40    33    28   ar
    41    39    34   ar
    42     9    10    1
    43    26    27    1
@<TRIPOS>MOLECULE
*****
 39 43 0 0 0
SMALL
GASTEIGER

@<TRIPOS>ATOM
      1 N          59.3252   89.0053    6.8719 N.3     1  UNL1       -0.2682
      2 C          59.2759   87.5386    7.1824 C.3     1  UNL1        0.0897
      3 C          59.6968   87.0436    8.5343 C.3     1  UNL1        0.0900
      4 N          60.1671   88.0153    9.5757 N.3     1  UNL1       -0.2626
      5 C          60.2164   89.4820    9.2652 C.3     1  UNL1        0.0900
      6 C          59.7955   89.9770    7.9133 C.3     1  UNL1        0.0897
      7 C          58.9042   89.5002    5.5199 C.3     1  UNL1        0.1056
      8 C          58.1742   90.8044    5.3926 C.3     1  UNL1        0.1700
      9 O          56.6847   90.8501    5.5644 O.3     1  UNL1       -0.3793
     10 H          56.3533   89.9578    5.7516 H       1  UNL1        0.2106
     11 C          58.9335   92.0629    5.0934 C.3     1  UNL1        0.2358
     12 O          59.0725   92.5363    3.6769 O.3     1  UNL1       -0.4727
     13 C          64.9431   95.3041   -0.7388 C.3     1  UNL1        0.0594
     14 C          64.0193   94.5907    0.2033 C.ar    1  UNL1        0.0886
     15 N          62.5660   94.8968    0.4140 N.ar    1  UNL1       -0.2426
     16 C          62.0351   93.9413    1.4411 C.ar    1  UNL1        0.0905
     17 C          60.6726   93.7719    2.0449 C.ar    1  UNL1        0.0565
     18 C          60.4351   92.7057    3.0730 C.ar    1  UNL1        0.1402
     19 C          61.5603   91.8091    3.4973 C.ar    1  UNL1        0.0375
     20 C          62.9229   91.9785    2.8935 C.ar    1  UNL1        0.0111
     21 C          63.1603   93.0446    1.8654 C.ar    1  UNL1        0.0484
     22 S          64.3865   93.4460    1.1004 S.2     1  UNL1       -0.0708
     23 C          60.5881   87.5203   10.9278 C.3     1  UNL1        0.1588
     24 C          61.7950   88.1063   11.5986 C.2     1  UNL1        0.2425
     25 O          62.9016   87.2092   12.0683 O.2     1  UNL1       -0.2733
     26 N          61.8953   89.5893   11.7997 N.am    1  UNL1       -0.2828
     27 H          61.1689   90.1781   11.4914 H       1  UNL1        0.1549
     28 C          63.1021   90.1753   12.4705 C.ar    1  UNL1        0.0503
     29 C          63.8291   91.3240   11.8364 C.ar    1  UNL1        0.0147
     30 C          65.0360   91.9100   12.5072 C.ar    1  UNL1        0.0013
     31 C          65.5159   91.3474   13.8122 C.ar    1  UNL1        0.0001
     32 C          64.7890   90.1988   14.4464 C.ar    1  UNL1        0.0013
     33 C          63.5821   89.6127   13.7755 C.ar    1  UNL1        0.0147
     34 C          66.7228   91.9334   14.4830 C.ar    1  UNL1        0.0000
     35 C          68.0584   91.8817   13.8023 C.ar    1  UNL1        0.0000
     36 C          69.2653   92.4677   14.4732 C.ar    1  UNL1        0.0000
     37 C          69.1366   93.1054   15.8247 C.ar    1  UNL1        0.0000
     38 C          67.8010   93.1570   16.5054 C.ar    1  UNL1        0.0000
     39 C          66.5941   92.5710   15.8346 C.ar    1  UNL1        0.0000
@<TRIPOS>BOND
     1    13    14    1
     2    14    15   ar
     3    15    16   ar
     4    16    17   ar
     5    17    18   ar
     6    18    12    1
     7    12    11    1
     8    11     8    1
     9     8     9    1
    10     8     7    1
    11     7     1    1
    12     1     2    1
    13     2     3    1
    14     3     4    1
    15     4    23    1
    16    23    24    1
    17    24    25    2
    18    24    26   am
    19    26    28    1
    20    28    29   ar
    21    29    30   ar
    22    30    31   ar
    23    31    34    1
    24    34    35   ar
    25    35    36   ar
    26    36    37   ar
    27    37    38   ar
    28    38    39   ar
    29    31    32   ar
    30    32    33   ar
    31     4     5    1
    32     5     6    1
    33    18    19   ar
    34    19    20   ar
    35    20    21   ar
    36    21    22   ar
    37    22    14   ar
    38    21    16   ar
    39     6     1    1
    40    33    28   ar
    41    39    34   ar
    42     9    10    1
    43    26    27    1
