@<TRIPOS>MOLECULE
*****
 37 42 0 0 0
SMALL
GASTEIGER

@<TRIPOS>ATOM
      1 C          63.9956   84.0160   14.0694 C.2     1  UNL1        0.1558
      2 N          64.6680   84.5527   15.2981 N.2     1  UNL1       -0.2402
      3 C          64.6063   86.0505   15.2434 C.2     1  UNL1        0.0929
      4 C          63.8958   86.4394   13.9809 C.2     1  UNL1        0.0093
      5 C          63.5183   85.1820   13.2553 C.3     1  UNL1        0.1374
      6 N          62.7888   85.2613   11.9471 N.pl3   1  UNL1       -0.3295
      7 C          62.4367   86.5980   11.3645 C.2     1  UNL1        0.0215
      8 C          62.8142   87.8553   12.0901 C.2     1  UNL1        0.0322
      9 C          62.4621   89.1920   11.5075 C.2     1  UNL1        0.1707
     10 O          62.8396   90.4493   12.2331 O.2     1  UNL1       -0.2916
     11 C          61.7326   89.2712   10.1993 C.3     1  UNL1        0.0693
     12 C          61.3551   88.0138    9.4737 C.3     1  UNL1        0.0141
     13 C          61.7072   86.6772   10.0563 C.3     1  UNL1        0.0411
     14 C          63.5437   87.7760   13.3984 C.3     1  UNL1        0.1049
     15 H          62.5410   84.4360   11.4709 H       1  UNL1        0.1471
     16 C          63.9212   89.0334   14.1240 C.ar    1  UNL1        0.1312
     17 C          63.3474   89.5055   15.4270 C.ar    1  UNL1        0.0373
     18 C          64.0103   90.8033   15.7824 C.ar    1  UNL1        0.0472
     19 C          64.9938   91.1333   14.6989 C.ar    1  UNL1        0.1774
     20 O          64.9387   90.0395   13.6740 O.2     1  UNL1       -0.4506
     21 S          65.8773   92.3445   14.6491 S.3     1  UNL1       -0.0117
     22 C          66.2304   92.9615   13.3283 C.2     1  UNL1        0.1967
     23 N          66.0872   94.4098   12.9653 N.2     1  UNL1       -0.2196
     24 C          66.5570   94.5819   11.5512 C.2     1  UNL1        0.0997
     25 C          66.6460   95.7872   10.6628 C.2     1  UNL1        0.0520
     26 C          67.1686   95.6505    9.2634 C.2     1  UNL1        0.1652
     27 F          67.2576   96.8559    8.3750 F       1  UNL1       -0.2021
     28 C          67.6021   94.3086    8.7525 C.2     1  UNL1        0.1509
     29 F          68.1246   94.1719    7.3531 F       1  UNL1       -0.2061
     30 C          67.5131   93.1032    9.6408 C.3     1  UNL1        0.1062
     31 C          66.9905   93.2399   11.0402 C.2     1  UNL1        0.0856
     32 N          66.7886   92.2384   12.1386 N.2     1  UNL1       -0.2233
     33 C          63.8296   82.5676   13.7166 C.2     1  UNL1        0.3569
     34 O          64.5818   81.9874   12.5557 O.2     1  UNL1       -0.2435
     35 O          62.9113   81.6993   14.5246 O.3     1  UNL1       -0.4446
     36 C          60.5242   80.7487   14.1400 C.3     1  UNL1        0.0513
     37 C          61.9929   80.7338   13.8359 C.3     1  UNL1        0.2089
@<TRIPOS>BOND
     1    36    37    1
     2    37    35    1
     3    35    33    1
     4    33    34    2
     5    33     1    1
     6     1     2    2
     7     2     3    1
     8     3     4    2
     9     4     5    1
    10     5     6    1
    11     6     7    1
    12     7     8    2
    13     8     9    1
    14     9    10    2
    15     9    11    1
    16    11    12    1
    17    12    13    1
    18     8    14    1
    19    14    16    1
    20    16    17   ar
    21    17    18   ar
    22    18    19   ar
    23    19    21    1
    24    21    22    1
    25    22    23    2
    26    23    24    1
    27    24    25    2
    28    25    26    1
    29    26    27    1
    30    26    28    2
    31    28    29    1
    32    28    30    1
    33    30    31    1
    34    31    32    2
    35    19    20   ar
    36     5     1    1
    37    13     7    1
    38    20    16   ar
    39    14     4    1
    40    32    22    1
    41    31    24    1
    42     6    15    1
@<TRIPOS>MOLECULE
*****
 37 42 0 0 0
SMALL
GASTEIGER

@<TRIPOS>ATOM
      1 C          60.7106   87.7725    9.6241 C.2     1  UNL1        0.1558
      2 N          60.7344   89.2601    9.8157 N.2     1  UNL1       -0.2402
      3 C          61.6058   89.5611   10.9989 C.2     1  UNL1        0.0929
      4 C          62.1206   88.2596   11.5386 C.2     1  UNL1        0.0093
      5 C          61.5673   87.1542   10.6889 C.3     1  UNL1        0.1374
      6 N          61.9151   85.7275   10.9945 N.pl3   1  UNL1       -0.3295
      7 C          62.8161   85.4061   12.1499 C.2     1  UNL1        0.0215
      8 C          63.3694   86.5115   12.9996 C.2     1  UNL1        0.0322
      9 C          64.2704   86.1901   14.1550 C.2     1  UNL1        0.1707
     10 O          64.8237   87.2955   15.0047 O.2     1  UNL1       -0.2916
     11 C          64.6182   84.7634   14.4606 C.3     1  UNL1        0.0693
     12 C          64.0649   83.6580   13.6109 C.3     1  UNL1        0.0141
     13 C          63.1639   83.9793   12.4556 C.3     1  UNL1        0.0411
     14 C          63.0216   87.9383   12.6939 C.3     1  UNL1        0.1049
     15 H          61.5519   85.0020   10.4368 H       1  UNL1        0.1471
     16 C          63.5749   89.0436   13.5436 C.ar    1  UNL1        0.1312
     17 C          63.1830   89.3482   14.9591 C.ar    1  UNL1        0.0373
     18 C          63.9831   90.5313   15.4174 C.ar    1  UNL1        0.0472
     19 C          64.8696   90.9580   14.2851 C.ar    1  UNL1        0.1774
     20 O          64.6173   90.0386   13.1271 O.2     1  UNL1       -0.4506
     21 S          65.8382   92.1031   14.3069 S.3     1  UNL1       -0.0117
     22 C          66.2365   92.7730   13.0254 C.2     1  UNL1        0.1967
     23 N          66.0668   94.2277   12.7011 N.2     1  UNL1       -0.2196
     24 C          66.5999   94.4597   11.3183 C.2     1  UNL1        0.0997
     25 C          66.6953   95.6956   10.4736 C.2     1  UNL1        0.0520
     26 C          67.2898   95.6201    9.0986 C.2     1  UNL1        0.1652
     27 F          67.3852   96.8560    8.2539 F       1  UNL1       -0.2021
     28 C          67.7890   94.3089    8.5682 C.2     1  UNL1        0.1509
     29 F          68.3835   94.2334    7.1932 F       1  UNL1       -0.2061
     30 C          67.6936   93.0729    9.4129 C.3     1  UNL1        0.1062
     31 C          67.0991   93.1484   10.7880 C.2     1  UNL1        0.0856
     32 N          66.8745   92.1060   11.8430 N.2     1  UNL1       -0.2233
     33 C          59.9616   87.0331    8.5554 C.2     1  UNL1        0.3569
     34 O          58.8413   87.7080    7.8210 O.2     1  UNL1       -0.2435
     35 O          60.3330   85.6188    8.2210 O.3     1  UNL1       -0.4446
     36 C          62.7663   84.9643    7.5882 C.3     1  UNL1        0.0513
     37 C          61.3745   85.3435    7.1772 C.3     1  UNL1        0.2089
@<TRIPOS>BOND
     1    36    37    1
     2    37    35    1
     3    35    33    1
     4    33    34    2
     5    33     1    1
     6     1     2    2
     7     2     3    1
     8     3     4    2
     9     4     5    1
    10     5     6    1
    11     6     7    1
    12     7     8    2
    13     8     9    1
    14     9    10    2
    15     9    11    1
    16    11    12    1
    17    12    13    1
    18     8    14    1
    19    14    16    1
    20    16    17   ar
    21    17    18   ar
    22    18    19   ar
    23    19    21    1
    24    21    22    1
    25    22    23    2
    26    23    24    1
    27    24    25    2
    28    25    26    1
    29    26    27    1
    30    26    28    2
    31    28    29    1
    32    28    30    1
    33    30    31    1
    34    31    32    2
    35    19    20   ar
    36     5     1    1
    37    13     7    1
    38    20    16   ar
    39    14     4    1
    40    32    22    1
    41    31    24    1
    42     6    15    1
