@<TRIPOS>MOLECULE
*****
 31 34 0 0 0
SMALL
GASTEIGER

@<TRIPOS>ATOM
      1 N          63.7256   87.0040   15.6818 N.am    1  UNL1       -0.2681
      2 C          64.1571   88.0909   14.7425 C.2     1  UNL1        0.3082
      3 O          64.1904   87.8356   13.2648 O.2     1  UNL1       -0.2522
      4 N          64.5554   89.4332   15.2808 N.am    1  UNL1       -0.2681
      5 H          63.7038   87.1716   16.6517 H       1  UNL1        0.1564
      6 H          64.5335   89.6008   16.2507 H       1  UNL1        0.1564
      7 C          63.3624   83.9041   13.2306 C.ar    1  UNL1        0.0769
      8 C          62.5309   82.9772   14.0671 C.ar    1  UNL1        0.0065
      9 C          62.0976   83.3927   15.4417 C.ar    1  UNL1        0.0015
     10 C          62.4959   84.7349   15.9800 C.ar    1  UNL1        0.0147
     11 C          63.3274   85.6617   15.1435 C.ar    1  UNL1        0.0518
     12 C          63.7607   85.2464   13.7689 C.ar    1  UNL1        0.0211
     13 C          63.7957   83.4886   11.8560 C.2     1  UNL1        0.3414
     14 O          64.7921   82.3803   11.6866 O.2     1  UNL1       -0.2449
     15 C          62.0994   85.1523   10.8046 C.3     1  UNL1        0.2560
     16 O          63.2325   84.1816   10.6506 O.3     1  UNL1       -0.4413
     17 C          64.9869   90.5200   14.3415 C.ar    1  UNL1        0.0516
     18 C          66.2984   91.2169   14.5525 C.ar    1  UNL1        0.0147
     19 C          66.7298   92.3037   13.6132 C.ar    1  UNL1        0.0010
     20 C          65.8499   92.6938   12.4627 C.ar    1  UNL1       -0.0014
     21 C          64.5384   91.9970   12.2516 C.ar    1  UNL1        0.0010
     22 C          64.1070   90.9101   13.1910 C.ar    1  UNL1        0.0147
     23 C          66.2814   93.7807   11.5233 C.2     1  UNL1        0.0158
     24 C          65.8284   95.1924   11.7509 C.2     1  UNL1        0.0487
     25 C          66.2599   96.2793   10.8116 C.2     1  UNL1        0.2355
     26 N          67.1445   95.9545    9.6445 N.2     1  UNL1       -0.0325
     27 C          67.5975   94.5428    9.4168 C.2     1  UNL1        0.3799
     28 N          68.4654   93.9253    8.3607 N.2     1  UNL1       -0.0106
     29 C          68.5702   92.4566    8.6474 C.2     1  UNL1        0.3351
     30 N          67.7671   92.1666    9.8806 N.2     1  UNL1       -0.2103
     31 C          67.1660   93.4559   10.3562 C.3     1  UNL1        0.2404
@<TRIPOS>BOND
     1    15    16    1
     2    16    13    1
     3    13    14    2
     4    13     7    1
     5     7     8   ar
     6     8     9   ar
     7     9    10   ar
     8    10    11   ar
     9    11     1    1
    10     1     2   am
    11     2     3    2
    12     2     4   am
    13     4    17    1
    14    17    18   ar
    15    18    19   ar
    16    19    20   ar
    17    20    23    1
    18    23    24    2
    19    24    25    1
    20    25    26    2
    21    26    27    1
    22    27    28    2
    23    28    29    1
    24    29    30    2
    25    30    31    1
    26    20    21   ar
    27    21    22   ar
    28    11    12   ar
    29    12     7   ar
    30    22    17   ar
    31    31    23    1
    32    31    27    1
    33     1     5    1
    34     4     6    1
@<TRIPOS>MOLECULE
*****
 31 34 0 0 0
SMALL
GASTEIGER

@<TRIPOS>ATOM
      1 N          62.3201   83.6010   15.4226 N.am    1  UNL1       -0.2681
      2 C          62.9116   84.9319   15.0640 C.2     1  UNL1        0.3082
      3 O          63.5207   85.1415   13.7094 O.2     1  UNL1       -0.2522
      4 N          62.8941   86.0534   16.0601 N.am    1  UNL1       -0.2681
      5 H          61.9203   83.4635   16.3117 H       1  UNL1        0.1564
      6 H          62.4943   85.9159   16.9492 H       1  UNL1        0.1564
      7 C          62.9558   81.5703   12.0726 C.ar    1  UNL1        0.0769
      8 C          62.3727   80.2365   12.4347 C.ar    1  UNL1        0.0065
      9 C          61.7720   80.0243   13.7927 C.ar    1  UNL1        0.0015
     10 C          61.7545   81.1458   14.7887 C.ar    1  UNL1        0.0147
     11 C          62.3377   82.4795   14.4266 C.ar    1  UNL1        0.0518
     12 C          62.9383   82.6919   13.0687 C.ar    1  UNL1        0.0211
     13 C          63.5565   81.7826   10.7147 C.2     1  UNL1        0.3414
     14 O          63.4421   80.7137    9.6686 O.2     1  UNL1       -0.2449
     15 C          63.5360   84.1914    9.7412 C.3     1  UNL1        0.2560
     16 O          64.2715   83.0638   10.4027 O.3     1  UNL1       -0.4413
     17 C          63.4855   87.3843   15.7015 C.ar    1  UNL1        0.0516
     18 C          64.4916   87.4839   14.5933 C.ar    1  UNL1        0.0147
     19 C          65.0831   88.8148   14.2347 C.ar    1  UNL1        0.0010
     20 C          64.6686   90.0463   14.9842 C.ar    1  UNL1       -0.0014
     21 C          63.6626   89.9468   16.0924 C.ar    1  UNL1        0.0010
     22 C          63.0711   88.6158   16.4510 C.ar    1  UNL1        0.0147
     23 C          65.2601   91.3773   14.6256 C.2     1  UNL1        0.0158
     24 C          65.9595   92.1936   15.6717 C.2     1  UNL1        0.0487
     25 C          66.5510   93.5245   15.3131 C.2     1  UNL1        0.2355
     26 N          66.4432   94.0392   13.9083 N.2     1  UNL1       -0.0325
     27 C          65.7439   93.2229   12.8621 C.2     1  UNL1        0.3799
     28 N          65.4836   93.4685   11.4054 N.2     1  UNL1       -0.0106
     29 C          64.7311   92.2893   10.8638 C.2     1  UNL1        0.3351
     30 N          64.5264   91.3149   11.9857 N.2     1  UNL1       -0.2103
     31 C          65.1524   91.8919   13.2207 C.3     1  UNL1        0.2404
@<TRIPOS>BOND
     1    15    16    1
     2    16    13    1
     3    13    14    2
     4    13     7    1
     5     7     8   ar
     6     8     9   ar
     7     9    10   ar
     8    10    11   ar
     9    11     1    1
    10     1     2   am
    11     2     3    2
    12     2     4   am
    13     4    17    1
    14    17    18   ar
    15    18    19   ar
    16    19    20   ar
    17    20    23    1
    18    23    24    2
    19    24    25    1
    20    25    26    2
    21    26    27    1
    22    27    28    2
    23    28    29    1
    24    29    30    2
    25    30    31    1
    26    20    21   ar
    27    21    22   ar
    28    11    12   ar
    29    12     7   ar
    30    22    17   ar
    31    31    23    1
    32    31    27    1
    33     1     5    1
    34     4     6    1
@<TRIPOS>MOLECULE
*****
 31 34 0 0 0
SMALL
GASTEIGER

@<TRIPOS>ATOM
      1 N          58.9004   90.5454    6.3654 N.am    1  UNL1       -0.2681
      2 C          59.7309   90.9630    5.1883 C.2     1  UNL1        0.3082
      3 O          61.0094   90.2421    4.8789 O.2     1  UNL1       -0.2522
      4 N          59.2830   92.1016    4.3204 N.am    1  UNL1       -0.2681
      5 H          58.0612   91.0186    6.5684 H       1  UNL1        0.1564
      6 H          58.4439   92.5748    4.5234 H       1  UNL1        0.1564
      7 C          60.5839   88.5406    9.3481 C.ar    1  UNL1        0.0769
      8 C          60.2439   87.1296    8.9688 C.ar    1  UNL1        0.0065
      9 C          59.4561   86.8574    7.7217 C.ar    1  UNL1        0.0015
     10 C          59.0083   87.9959    6.8539 C.ar    1  UNL1        0.0147
     11 C          59.3483   89.4068    7.2332 C.ar    1  UNL1        0.0518
     12 C          60.1360   89.6792    8.4802 C.ar    1  UNL1        0.0211
     13 C          61.3717   88.8129   10.5951 C.2     1  UNL1        0.3414
     14 O          60.7737   88.5195   11.9391 O.2     1  UNL1       -0.2449
     15 C          62.9703   90.8610   10.5838 C.3     1  UNL1        0.2560
     16 O          62.7576   89.3786   10.4983 O.3     1  UNL1       -0.4413
     17 C          60.1136   92.5192    3.1433 C.ar    1  UNL1        0.0516
     18 C          61.6036   92.3499    3.1788 C.ar    1  UNL1        0.0147
     19 C          62.4342   92.7675    2.0018 C.ar    1  UNL1        0.0010
     20 C          61.7748   93.3545    0.7890 C.ar    1  UNL1       -0.0014
     21 C          60.2848   93.5238    0.7534 C.ar    1  UNL1        0.0010
     22 C          59.4542   93.1061    1.9306 C.ar    1  UNL1        0.0147
     23 C          62.6054   93.7721   -0.3882 C.2     1  UNL1        0.0158
     24 C          62.3203   93.2037   -1.7467 C.2     1  UNL1        0.0487
     25 C          63.1509   93.6213   -2.9238 C.2     1  UNL1        0.2355
     26 N          64.2667   94.6074   -2.7425 N.2     1  UNL1       -0.0325
     27 C          64.5517   95.1758   -1.3839 C.2     1  UNL1        0.3799
     28 N          65.5776   96.1584   -0.9022 N.2     1  UNL1       -0.0106
     29 C          65.3810   96.3480    0.5727 C.2     1  UNL1        0.3351
     30 N          64.2336   95.4826    1.0025 N.2     1  UNL1       -0.2103
     31 C          63.7211   94.7581   -0.2068 C.3     1  UNL1        0.2404
@<TRIPOS>BOND
     1    15    16    1
     2    16    13    1
     3    13    14    2
     4    13     7    1
     5     7     8   ar
     6     8     9   ar
     7     9    10   ar
     8    10    11   ar
     9    11     1    1
    10     1     2   am
    11     2     3    2
    12     2     4   am
    13     4    17    1
    14    17    18   ar
    15    18    19   ar
    16    19    20   ar
    17    20    23    1
    18    23    24    2
    19    24    25    1
    20    25    26    2
    21    26    27    1
    22    27    28    2
    23    28    29    1
    24    29    30    2
    25    30    31    1
    26    20    21   ar
    27    21    22   ar
    28    11    12   ar
    29    12     7   ar
    30    22    17   ar
    31    31    23    1
    32    31    27    1
    33     1     5    1
    34     4     6    1
@<TRIPOS>MOLECULE
*****
 31 34 0 0 0
SMALL
GASTEIGER

@<TRIPOS>ATOM
      1 N          58.8763   88.8054    6.3431 N.am    1  UNL1       -0.2681
      2 C          59.7504   88.4620    7.5126 C.2     1  UNL1        0.3082
      3 O          60.8193   89.4164    7.9559 O.2     1  UNL1       -0.2522
      4 N          59.5556   87.1641    8.2390 N.am    1  UNL1       -0.2681
      5 H          58.1747   88.1790    6.0522 H       1  UNL1        0.1564
      6 H          58.8540   86.5376    7.9481 H       1  UNL1        0.1564
      7 C          60.5697   91.6902    4.2075 C.ar    1  UNL1        0.0769
      8 C          59.4605   92.6991    4.1641 C.ar    1  UNL1        0.0065
      9 C          58.1566   92.4101    4.8469 C.ar    1  UNL1        0.0015
     10 C          57.9619   91.1122    5.5733 C.ar    1  UNL1        0.0147
     11 C          59.0711   90.1034    5.6167 C.ar    1  UNL1        0.0518
     12 C          60.3750   90.3923    4.9339 C.ar    1  UNL1        0.0211
     13 C          61.8736   91.9792    3.5247 C.2     1  UNL1        0.3414
     14 O          63.1072   91.2181    3.9106 O.2     1  UNL1       -0.2449
     15 C          61.7797   92.6454    1.0151 C.3     1  UNL1        0.2560
     16 O          61.9439   93.0293    2.4558 O.3     1  UNL1       -0.4413
     17 C          60.4297   86.8206    9.4085 C.ar    1  UNL1        0.0516
     18 C          61.4850   85.7634    9.2713 C.ar    1  UNL1        0.0147
     19 C          62.3591   85.4200   10.4408 C.ar    1  UNL1        0.0010
     20 C          62.1779   86.1337   11.7478 C.ar    1  UNL1       -0.0014
     21 C          61.1227   87.1908   11.8850 C.ar    1  UNL1        0.0010
     22 C          60.2485   87.5342   10.7154 C.ar    1  UNL1        0.0147
     23 C          63.0521   85.7902   12.9173 C.2     1  UNL1        0.0158
     24 C          63.8371   86.8654   13.6083 C.2     1  UNL1        0.0487
     25 C          64.7112   86.5220   14.7778 C.2     1  UNL1        0.2355
     26 N          64.8004   85.1032   15.2565 N.2     1  UNL1       -0.0325
     27 C          64.0153   84.0279   14.5655 C.2     1  UNL1        0.3799
     28 N          63.9033   82.5523   14.8104 N.2     1  UNL1       -0.0106
     29 C          62.9599   81.9838   13.7922 C.2     1  UNL1        0.3351
     30 N          62.4889   83.1080   12.9180 N.2     1  UNL1       -0.2103
     31 C          63.1411   84.3714   13.3960 C.3     1  UNL1        0.2404
@<TRIPOS>BOND
     1    15    16    1
     2    16    13    1
     3    13    14    2
     4    13     7    1
     5     7     8   ar
     6     8     9   ar
     7     9    10   ar
     8    10    11   ar
     9    11     1    1
    10     1     2   am
    11     2     3    2
    12     2     4   am
    13     4    17    1
    14    17    18   ar
    15    18    19   ar
    16    19    20   ar
    17    20    23    1
    18    23    24    2
    19    24    25    1
    20    25    26    2
    21    26    27    1
    22    27    28    2
    23    28    29    1
    24    29    30    2
    25    30    31    1
    26    20    21   ar
    27    21    22   ar
    28    11    12   ar
    29    12     7   ar
    30    22    17   ar
    31    31    23    1
    32    31    27    1
    33     1     5    1
    34     4     6    1
@<TRIPOS>MOLECULE
*****
 31 34 0 0 0
SMALL
GASTEIGER

@<TRIPOS>ATOM
      1 N          58.9108   90.4030    6.1109 N.am    1  UNL1       -0.2681
      2 C          59.8973   91.0257    5.1682 C.2     1  UNL1        0.3082
      3 O          61.3356   90.6012    5.1996 O.2     1  UNL1       -0.2522
      4 N          59.4456   92.0730    4.1938 N.am    1  UNL1       -0.2681
      5 H          57.9667   90.6817    6.0902 H       1  UNL1        0.1564
      6 H          58.5016   92.3517    4.1732 H       1  UNL1        0.1564
      7 C          60.6047   88.7029    9.2717 C.ar    1  UNL1        0.0769
      8 C          60.2658   87.2611    9.0336 C.ar    1  UNL1        0.0065
      9 C          59.4752   86.8667    7.8214 C.ar    1  UNL1        0.0015
     10 C          59.0236   87.9140    6.8472 C.ar    1  UNL1        0.0147
     11 C          59.3625   89.3557    7.0852 C.ar    1  UNL1        0.0518
     12 C          60.1530   89.7502    8.2973 C.ar    1  UNL1        0.0211
     13 C          61.3952   89.0972   10.4838 C.2     1  UNL1        0.3414
     14 O          62.8047   89.5875   10.3332 O.2     1  UNL1       -0.2449
     15 C          59.4511   89.6508   12.1162 C.3     1  UNL1        0.2560
     16 O          60.7761   89.0014   11.8468 O.3     1  UNL1       -0.4413
     17 C          60.4321   92.6957    3.2511 C.ar    1  UNL1        0.0516
     18 C          61.7872   92.0788    3.0683 C.ar    1  UNL1        0.0147
     19 C          62.7738   92.7015    2.1256 C.ar    1  UNL1        0.0010
     20 C          62.4053   93.9412    1.3655 C.ar    1  UNL1       -0.0014
     21 C          61.0504   94.5581    1.5483 C.ar    1  UNL1        0.0010
     22 C          60.0638   93.9353    2.4911 C.ar    1  UNL1        0.0147
     23 C          63.3920   94.5639    0.4228 C.2     1  UNL1        0.0158
     24 C          64.3991   95.5505    0.9350 C.2     1  UNL1        0.0487
     25 C          65.3856   96.1732   -0.0077 C.2     1  UNL1        0.2355
     26 N          65.3652   95.8094   -1.4628 N.2     1  UNL1       -0.0325
     27 C          64.3581   94.8228   -1.9751 C.2     1  UNL1        0.3799
     28 N          64.0988   94.2738   -3.3467 N.2     1  UNL1       -0.0106
     29 C          62.9519   93.3117   -3.2516 C.2     1  UNL1        0.3351
     30 N          62.5024   93.2662   -1.8212 N.2     1  UNL1       -0.2103
     31 C          63.3715   94.2001   -1.0323 C.3     1  UNL1        0.2404
@<TRIPOS>BOND
     1    15    16    1
     2    16    13    1
     3    13    14    2
     4    13     7    1
     5     7     8   ar
     6     8     9   ar
     7     9    10   ar
     8    10    11   ar
     9    11     1    1
    10     1     2   am
    11     2     3    2
    12     2     4   am
    13     4    17    1
    14    17    18   ar
    15    18    19   ar
    16    19    20   ar
    17    20    23    1
    18    23    24    2
    19    24    25    1
    20    25    26    2
    21    26    27    1
    22    27    28    2
    23    28    29    1
    24    29    30    2
    25    30    31    1
    26    20    21   ar
    27    21    22   ar
    28    11    12   ar
    29    12     7   ar
    30    22    17   ar
    31    31    23    1
    32    31    27    1
    33     1     5    1
    34     4     6    1
@<TRIPOS>MOLECULE
*****
 31 34 0 0 0
SMALL
GASTEIGER

@<TRIPOS>ATOM
      1 N          61.6376   85.1358   11.1900 N.am    1  UNL1       -0.2681
      2 C          62.4665   86.3544   11.4689 C.2     1  UNL1        0.3082
      3 O          63.8868   86.2064   11.9280 O.2     1  UNL1       -0.2522
      4 N          61.8751   87.7211   11.2888 N.am    1  UNL1       -0.2681
      5 H          60.7054   85.2330   10.8887 H       1  UNL1        0.1564
      6 H          60.9429   87.8183   10.9875 H       1  UNL1        0.1564
      7 C          62.4403   81.5715   12.7397 C.ar    1  UNL1        0.0769
      8 C          63.4119   81.0357   11.7301 C.ar    1  UNL1        0.0065
      9 C          63.7920   81.8667   10.5406 C.ar    1  UNL1        0.0015
     10 C          63.2006   83.2334   10.3605 C.ar    1  UNL1        0.0147
     11 C          62.2291   83.7691   11.3701 C.ar    1  UNL1        0.0518
     12 C          61.8489   82.9382   12.5596 C.ar    1  UNL1        0.0211
     13 C          62.0602   80.7406   13.9292 C.2     1  UNL1        0.3414
     14 O          63.0103   79.7064   14.4562 O.2     1  UNL1       -0.2449
     15 C          59.5599   80.0892   14.2029 C.3     1  UNL1        0.2560
     16 O          60.7298   80.9437   14.5918 O.3     1  UNL1       -0.4413
     17 C          62.7040   88.9397   11.5678 C.ar    1  UNL1        0.0516
     18 C          63.4002   89.0871   12.8883 C.ar    1  UNL1        0.0147
     19 C          64.2290   90.3057   13.1672 C.ar    1  UNL1        0.0010
     20 C          64.3618   91.3770   12.1256 C.ar    1  UNL1       -0.0014
     21 C          63.6657   91.2297   10.8052 C.ar    1  UNL1        0.0010
     22 C          62.8367   90.0110   10.5263 C.ar    1  UNL1        0.0147
     23 C          65.1907   92.5957   12.4046 C.2     1  UNL1        0.0158
     24 C          65.3283   93.6642   11.3609 C.2     1  UNL1        0.0487
     25 C          66.1572   94.8827   11.6399 C.2     1  UNL1        0.2355
     26 N          66.8486   95.0329   12.9626 N.2     1  UNL1       -0.0325
     27 C          66.7110   93.9644   14.0063 C.2     1  UNL1        0.3799
     28 N          67.2712   93.8368   15.3919 N.2     1  UNL1       -0.0106
     29 C          66.7885   92.5392   15.9692 C.2     1  UNL1        0.3351
     30 N          65.9300   91.8649   14.9405 N.2     1  UNL1       -0.2103
     31 C          65.8821   92.7458   13.7273 C.3     1  UNL1        0.2404
@<TRIPOS>BOND
     1    15    16    1
     2    16    13    1
     3    13    14    2
     4    13     7    1
     5     7     8   ar
     6     8     9   ar
     7     9    10   ar
     8    10    11   ar
     9    11     1    1
    10     1     2   am
    11     2     3    2
    12     2     4   am
    13     4    17    1
    14    17    18   ar
    15    18    19   ar
    16    19    20   ar
    17    20    23    1
    18    23    24    2
    19    24    25    1
    20    25    26    2
    21    26    27    1
    22    27    28    2
    23    28    29    1
    24    29    30    2
    25    30    31    1
    26    20    21   ar
    27    21    22   ar
    28    11    12   ar
    29    12     7   ar
    30    22    17   ar
    31    31    23    1
    32    31    27    1
    33     1     5    1
    34     4     6    1
@<TRIPOS>MOLECULE
*****
 31 34 0 0 0
SMALL
GASTEIGER

@<TRIPOS>ATOM
      1 N          61.7226   85.0408   11.1499 N.am    1  UNL1       -0.2681
      2 C          62.5499   86.2166   11.5775 C.2     1  UNL1        0.3082
      3 O          63.9066   85.9999   12.1794 O.2     1  UNL1       -0.2522
      4 N          62.0205   87.6093   11.4032 N.am    1  UNL1       -0.2681
      5 H          60.8321   85.1831   10.7549 H       1  UNL1        0.1564
      6 H          61.1300   87.7516   11.0082 H       1  UNL1        0.1564
      7 C          62.3946   81.4517   12.7044 C.ar    1  UNL1        0.0769
      8 C          63.3106   80.8629   11.6727 C.ar    1  UNL1        0.0065
      9 C          63.6972   81.6668   10.4667 C.ar    1  UNL1        0.0015
     10 C          63.1678   83.0594   10.2925 C.ar    1  UNL1        0.0147
     11 C          62.2519   83.6481   11.3242 C.ar    1  UNL1        0.0518
     12 C          61.8653   82.8444   12.5302 C.ar    1  UNL1        0.0211
     13 C          62.0081   80.6478   13.9103 C.2     1  UNL1        0.3414
     14 O          62.9368   79.5954   14.4394 O.2     1  UNL1       -0.2449
     15 C          59.4960   80.0662   14.2288 C.3     1  UNL1        0.2560
     16 O          60.6927   80.8964   14.5873 O.3     1  UNL1       -0.4413
     17 C          62.8478   88.7851   11.8308 C.ar    1  UNL1        0.0516
     18 C          62.9838   89.9748   10.9273 C.ar    1  UNL1        0.0147
     19 C          63.8111   91.1506   11.3549 C.ar    1  UNL1        0.0010
     20 C          64.5026   91.1368   12.6860 C.ar    1  UNL1       -0.0014
     21 C          64.3666   89.9472   13.5895 C.ar    1  UNL1        0.0010
     22 C          63.5392   88.7714   13.1618 C.ar    1  UNL1        0.0147
     23 C          65.3299   92.3127   13.1136 C.2     1  UNL1        0.0158
     24 C          65.8031   92.4204   14.5329 C.2     1  UNL1        0.0487
     25 C          66.6304   93.5962   14.9605 C.2     1  UNL1        0.2355
     26 N          66.9846   94.6645   13.9688 N.2     1  UNL1       -0.0325
     27 C          66.5114   94.5567   12.5495 C.2     1  UNL1        0.3799
     28 N          66.7018   95.4475   11.3577 N.2     1  UNL1       -0.0106
     29 C          65.9921   94.8222   10.1936 C.2     1  UNL1        0.3351
     30 N          65.3631   93.5449   10.6658 N.2     1  UNL1       -0.2103
     31 C          65.6841   93.3809   12.1219 C.3     1  UNL1        0.2404
@<TRIPOS>BOND
     1    15    16    1
     2    16    13    1
     3    13    14    2
     4    13     7    1
     5     7     8   ar
     6     8     9   ar
     7     9    10   ar
     8    10    11   ar
     9    11     1    1
    10     1     2   am
    11     2     3    2
    12     2     4   am
    13     4    17    1
    14    17    18   ar
    15    18    19   ar
    16    19    20   ar
    17    20    23    1
    18    23    24    2
    19    24    25    1
    20    25    26    2
    21    26    27    1
    22    27    28    2
    23    28    29    1
    24    29    30    2
    25    30    31    1
    26    20    21   ar
    27    21    22   ar
    28    11    12   ar
    29    12     7   ar
    30    22    17   ar
    31    31    23    1
    32    31    27    1
    33     1     5    1
    34     4     6    1
@<TRIPOS>MOLECULE
*****
 31 34 0 0 0
SMALL
GASTEIGER

@<TRIPOS>ATOM
      1 N          61.5212   86.1587   12.3415 N.am    1  UNL1       -0.2681
      2 C          62.4330   87.3256   12.1036 C.2     1  UNL1        0.3082
      3 O          63.9164   87.1608   12.2524 O.2     1  UNL1       -0.2522
      4 N          61.8614   88.6575   11.7168 N.am    1  UNL1       -0.2681
      5 H          60.5475   86.2668   12.2438 H       1  UNL1        0.1564
      6 H          60.8877   88.7657   11.6191 H       1  UNL1        0.1564
      7 C          63.1232   82.5391   12.0540 C.ar    1  UNL1        0.0769
      8 C          63.2358   82.1632   13.5019 C.ar    1  UNL1        0.0065
      9 C          62.7769   83.1191   14.5628 C.ar    1  UNL1        0.0015
     10 C          62.2054   84.4509   14.1760 C.ar    1  UNL1        0.0147
     11 C          62.0927   84.8268   12.7282 C.ar    1  UNL1        0.0518
     12 C          62.5516   83.8710   11.6672 C.ar    1  UNL1        0.0211
     13 C          63.5821   81.5832   10.9931 C.2     1  UNL1        0.3414
     14 O          64.5422   82.0410    9.9355 O.2     1  UNL1       -0.2449
     15 C          62.7494   79.4942    9.6919 C.3     1  UNL1        0.2560
     16 O          63.0808   80.1694   10.9897 O.3     1  UNL1       -0.4413
     17 C          62.7732   89.8244   11.4789 C.ar    1  UNL1        0.0516
     18 C          62.8384   90.4609   10.1222 C.ar    1  UNL1        0.0147
     19 C          63.7503   91.6279    9.8843 C.ar    1  UNL1        0.0010
     20 C          64.5970   92.1585   11.0031 C.ar    1  UNL1       -0.0014
     21 C          64.5318   91.5220   12.3598 C.ar    1  UNL1        0.0010
     22 C          63.6199   90.3550   12.5977 C.ar    1  UNL1        0.0147
     23 C          65.5088   93.3255   10.7652 C.2     1  UNL1        0.0158
     24 C          65.0544   94.7139   11.1053 C.2     1  UNL1        0.0487
     25 C          65.9661   95.8809   10.8673 C.2     1  UNL1        0.2355
     26 N          67.3325   95.6595   10.2893 N.2     1  UNL1       -0.0325
     27 C          67.7870   94.2711    9.9493 C.2     1  UNL1        0.3799
     28 N          69.0686   93.7478    9.3716 N.2     1  UNL1       -0.0106
     29 C          68.9488   92.2573    9.2526 C.2     1  UNL1        0.3351
     30 N          67.5932   91.8594    9.7566 N.2     1  UNL1       -0.2103
     31 C          66.8752   93.1040   10.1872 C.3     1  UNL1        0.2404
@<TRIPOS>BOND
     1    15    16    1
     2    16    13    1
     3    13    14    2
     4    13     7    1
     5     7     8   ar
     6     8     9   ar
     7     9    10   ar
     8    10    11   ar
     9    11     1    1
    10     1     2   am
    11     2     3    2
    12     2     4   am
    13     4    17    1
    14    17    18   ar
    15    18    19   ar
    16    19    20   ar
    17    20    23    1
    18    23    24    2
    19    24    25    1
    20    25    26    2
    21    26    27    1
    22    27    28    2
    23    28    29    1
    24    29    30    2
    25    30    31    1
    26    20    21   ar
    27    21    22   ar
    28    11    12   ar
    29    12     7   ar
    30    22    17   ar
    31    31    23    1
    32    31    27    1
    33     1     5    1
    34     4     6    1
@<TRIPOS>MOLECULE
*****
 31 34 0 0 0
SMALL
GASTEIGER

@<TRIPOS>ATOM
      1 N          60.1072   88.3035   10.9032 N.am    1  UNL1       -0.2681
      2 C          61.3842   88.8790   11.4398 C.2     1  UNL1        0.3082
      3 O          62.6796   88.6221   10.7286 O.2     1  UNL1       -0.2522
      4 N          61.3658   89.7113   12.6876 N.am    1  UNL1       -0.2681
      5 H          59.2569   88.4721   11.3700 H       1  UNL1        0.1564
      6 H          60.5156   89.8799   13.1543 H       1  UNL1        0.1564
      7 C          61.3522   85.8157    8.0729 C.ar    1  UNL1        0.0769
      8 C          60.1620   85.8066    7.1599 C.ar    1  UNL1        0.0065
      9 C          58.9536   86.6298    7.4947 C.ar    1  UNL1        0.0015
     10 C          58.9354   87.4621    8.7425 C.ar    1  UNL1        0.0147
     11 C          60.1255   87.4712    9.6554 C.ar    1  UNL1        0.0518
     12 C          61.3339   86.6480    9.3207 C.ar    1  UNL1        0.0211
     13 C          62.5606   84.9925    7.7381 C.2     1  UNL1        0.3414
     14 O          62.6777   84.3462    6.3896 O.2     1  UNL1       -0.2449
     15 C          63.5650   83.7107    9.7626 C.3     1  UNL1        0.2560
     16 O          63.6520   84.8156    8.7519 O.3     1  UNL1       -0.4413
     17 C          62.6428   90.2867   13.2241 C.ar    1  UNL1        0.0516
     18 C          63.4808   91.1850   12.3632 C.ar    1  UNL1        0.0147
     19 C          64.7578   91.7604   12.8997 C.ar    1  UNL1        0.0010
     20 C          65.1971   91.4376   14.2973 C.ar    1  UNL1       -0.0014
     21 C          64.3592   90.5395   15.1582 C.ar    1  UNL1        0.0010
     22 C          63.0821   89.9640   14.6216 C.ar    1  UNL1        0.0147
     23 C          66.4741   92.0131   14.8338 C.2     1  UNL1        0.0158
     24 C          66.4860   92.6972   16.1687 C.2     1  UNL1        0.0487
     25 C          67.7630   93.2726   16.7052 C.2     1  UNL1        0.2355
     26 N          69.0283   93.1640   15.9069 N.2     1  UNL1       -0.0325
     27 C          69.0165   92.4800   14.5721 C.2     1  UNL1        0.3799
     28 N          70.0994   92.2226   13.5666 N.2     1  UNL1       -0.0106
     29 C          69.4916   91.4880   12.4086 C.2     1  UNL1        0.3351
     30 N          68.0330   91.2914   12.6984 N.2     1  UNL1       -0.2103
     31 C          67.7394   91.9045   14.0355 C.3     1  UNL1        0.2404
@<TRIPOS>BOND
     1    15    16    1
     2    16    13    1
     3    13    14    2
     4    13     7    1
     5     7     8   ar
     6     8     9   ar
     7     9    10   ar
     8    10    11   ar
     9    11     1    1
    10     1     2   am
    11     2     3    2
    12     2     4   am
    13     4    17    1
    14    17    18   ar
    15    18    19   ar
    16    19    20   ar
    17    20    23    1
    18    23    24    2
    19    24    25    1
    20    25    26    2
    21    26    27    1
    22    27    28    2
    23    28    29    1
    24    29    30    2
    25    30    31    1
    26    20    21   ar
    27    21    22   ar
    28    11    12   ar
    29    12     7   ar
    30    22    17   ar
    31    31    23    1
    32    31    27    1
    33     1     5    1
    34     4     6    1
