@<TRIPOS>MOLECULE
*****
 57 62 0 0 0
SMALL
GASTEIGER

@<TRIPOS>ATOM
      1 C          62.0798   86.9398   11.3806 C.3     1  UNL1        0.0760
      2 C          62.6278   89.4618   11.0822 C.2     1  UNL1        0.2406
      3 O          61.4183   89.6213   10.2095 O.2     1  UNL1       -0.2733
      4 N          62.9586   88.1210   11.6678 N.am    1  UNL1       -0.3043
      5 H          63.7524   88.0163   12.2406 H       1  UNL1        0.1494
      6 N          63.7633   91.2965   15.3226 N.am    1  UNL1       -0.2566
      7 C          63.2728   90.7544   16.6324 C.3     1  UNL1        0.1168
      8 C          63.3463   90.6445   14.0377 C.2     1  UNL1        0.3079
      9 O          62.4389   89.4504   14.0625 O.2     1  UNL1       -0.2523
     10 N          63.8368   91.1867   12.7279 N.am    1  UNL1       -0.2558
     11 C          64.7437   92.3677   12.5466 C.3     1  UNL1        0.1113
     12 C          64.9739   92.5539   11.0761 C.3     1  UNL1        0.0797
     13 C          64.2093   91.4880   10.3486 C.3     1  UNL1        0.0469
     14 C          63.5065   90.6430   11.3694 C.3     1  UNL1        0.1544
     15 N          65.8202   93.6190   10.4441 N.3     1  UNL1       -0.2681
     16 C          65.3932   95.0553   10.5129 C.3     1  UNL1        0.1046
     17 C          66.2395   96.1204    9.8809 C.3     1  UNL1        0.1595
     18 O          67.5126   95.7491    9.1800 O.3     1  UNL1       -0.3508
     19 C          67.9396   94.3129    9.1112 C.3     1  UNL1        0.1595
     20 C          67.0933   93.2478    9.7432 C.3     1  UNL1        0.1046
     21 C          64.6707   92.4907   15.2977 C.3     1  UNL1        0.1413
     22 C          68.5160   92.6046   15.8132 C.ar    1  UNL1        0.0875
     23 N          67.1426   93.1491   16.0728 N.ar    1  UNL1       -0.2453
     24 C          66.1586   92.3025   15.3212 C.ar    1  UNL1        0.0858
     25 C          66.9239   91.2347   14.5970 C.ar    1  UNL1        0.0530
     26 S          68.3808   91.4214   14.9012 S.2     1  UNL1       -0.0705
     27 C          70.1841   94.5743   16.1093 C.3     1  UNL1        0.0069
     28 C          69.7993   93.1478   16.3683 C.3     1  UNL1        0.0465
     29 C          70.6978   92.2646   17.1823 C.3     1  UNL1        0.0069
     30 C          62.2043   85.6940   12.2068 C.3     1  UNL1        0.0216
     31 C          63.3780   84.7801   12.0137 C.3     1  UNL1        0.0217
     32 C          64.1302   84.2635   13.2042 C.3     1  UNL1        0.0792
     33 N          64.2314   82.7863   13.4441 N.am    1  UNL1       -0.2720
     34 C          63.0684   82.0397   14.0272 C.2     1  UNL1        0.4019
     35 O          61.8040   82.7704   14.3703 O.2     1  UNL1       -0.2264
     36 H          65.0612   82.3067   13.2190 H       1  UNL1        0.1527
     37 O          63.1696   80.5625   14.2671 O.3     1  UNL1       -0.4291
     38 C          62.4442   79.6053   13.3685 C.3     1  UNL1        0.2447
     39 C          62.6508   79.6669   11.8841 C.ar    1  UNL1        0.0714
     40 C          62.8727   80.9108   11.0757 C.ar    1  UNL1        0.1053
     41 N          63.0309   80.5081    9.6395 N.ar    1  UNL1       -0.2350
     42 C          62.9068   79.0153    9.5602 C.ar    1  UNL1        0.1343
     43 S          62.6719   78.4954   10.9475 S.2     1  UNL1       -0.0652
     44 C          64.7812   85.2241   14.1547 C.3     1  UNL1        0.0460
     45 C          63.9940   85.8021   15.2932 C.ar    1  UNL1       -0.0205
     46 C          63.0809   84.9237   16.0959 C.ar    1  UNL1       -0.0042
     47 C          62.2936   85.5017   17.2345 C.ar    1  UNL1       -0.0003
     48 C          62.4194   86.9582   17.5702 C.ar    1  UNL1       -0.0000
     49 C          63.3325   87.8367   16.7674 C.ar    1  UNL1       -0.0003
     50 C          64.1198   87.2587   15.6288 C.ar    1  UNL1       -0.0042
     51 C          61.0767   87.0043   10.2673 C.3     1  UNL1        0.0459
     52 C          61.3131   86.2385    8.9994 C.ar    1  UNL1       -0.0205
     53 C          62.6718   85.6746    8.7061 C.ar    1  UNL1       -0.0042
     54 C          62.9083   84.9088    7.4381 C.ar    1  UNL1       -0.0003
     55 C          61.7860   84.7070    6.4634 C.ar    1  UNL1       -0.0000
     56 C          60.4274   85.2709    6.7567 C.ar    1  UNL1       -0.0003
     57 C          60.1909   86.0367    8.0247 C.ar    1  UNL1       -0.0042
@<TRIPOS>BOND
     1    27    28    1
     2    28    29    1
     3    28    22    1
     4    22    23   ar
     5    23    24   ar
     6    24    21    1
     7    21     6    1
     8     6     7    1
     9     6     8   am
    10     8     9    2
    11     8    10   am
    12    10    11    1
    13    11    12    1
    14    12    15    1
    15    15    16    1
    16    16    17    1
    17    17    18    1
    18    18    19    1
    19    19    20    1
    20    12    13    1
    21    13    14    1
    22    14     2    1
    23     2     3    2
    24     2     4   am
    25     4     1    1
    26     1    30    1
    27    30    31    1
    28    32    31    1
    29    32    44    1
    30    44    45    1
    31    45    46   ar
    32    46    47   ar
    33    47    48   ar
    34    48    49   ar
    35    49    50   ar
    36    32    33    1
    37    33    34   am
    38    34    35    2
    39    34    37    1
    40    37    38    1
    41    38    39    1
    42    39    40   ar
    43    40    41   ar
    44    41    42   ar
    45    42    43   ar
    46     1    51    1
    47    51    52    1
    48    52    53   ar
    49    53    54   ar
    50    54    55   ar
    51    55    56   ar
    52    56    57   ar
    53    24    25   ar
    54    25    26   ar
    55    26    22   ar
    56    14    10    1
    57    50    45   ar
    58    43    39   ar
    59    57    52   ar
    60    20    15    1
    61     4     5    1
    62    33    36    1
