@<TRIPOS>MOLECULE
*****
 31 34 0 0 0
SMALL
GASTEIGER

@<TRIPOS>ATOM
      1 C          59.3289   88.8835    7.3752 C.ar    1  UNL1        0.1388
      2 C          59.2283   87.4116    7.6459 C.ar    1  UNL1        0.0384
      3 C          60.0830   86.7840    8.7068 C.ar    1  UNL1        0.0221
      4 C          61.0384   87.6283    9.4969 C.ar    1  UNL1        0.0825
      5 C          61.1391   89.1002    9.2262 C.ar    1  UNL1        0.0194
      6 C          60.2843   89.7278    8.1653 C.ar    1  UNL1        0.0382
      7 C          62.1642   89.6741   10.1589 C.ar    1  UNL1        0.0144
      8 C          62.6971   88.5568   11.0061 C.ar    1  UNL1        0.0970
      9 N          62.0013   87.2924   10.5970 N.ar    1  UNL1       -0.2080
     10 S          62.2285   85.9312   11.1847 S.O2    1  UNL1        0.0860
     11 O          61.6431   86.3951   12.4855 O.2     1  UNL1       -0.1476
     12 O          62.8140   85.4673    9.8839 O.2     1  UNL1       -0.1476
     13 C          62.4558   84.5699   11.7724 C.ar    1  UNL1        0.1277
     14 C          62.3394   84.3634   13.2534 C.ar    1  UNL1        0.0201
     15 C          62.5667   83.0021   13.8411 C.ar    1  UNL1       -0.0029
     16 C          62.9103   81.8474   12.9476 C.ar    1  UNL1       -0.0224
     17 C          63.0267   82.0539   11.4664 C.ar    1  UNL1       -0.0029
     18 C          62.7994   83.4152   10.8788 C.ar    1  UNL1        0.0201
     19 C          63.1375   80.4861   13.5352 C.3     1  UNL1        0.0224
     20 C          64.3589   80.2217   14.3648 C.3     1  UNL1        0.0047
     21 C          62.1434   79.3892   13.2931 C.3     1  UNL1        0.0047
     22 C          58.9862   90.6875    5.5372 C.3     1  UNL1        0.2525
     23 O          58.4741   89.5111    6.3143 O.3     1  UNL1       -0.4714
     24 C          62.5829   91.1126   10.2316 C.3     1  UNL1        0.1008
     25 N          63.7056   91.5220   11.1382 N.3     1  UNL1       -0.2665
     26 C          63.6938   91.1092   12.5802 C.3     1  UNL1        0.0899
     27 C          64.8165   91.5186   13.4868 C.3     1  UNL1        0.0897
     28 N          65.9510   92.3410   12.9514 N.3     1  UNL1       -0.2691
     29 C          67.0737   92.7504   13.8579 C.3     1  UNL1        0.0897
     30 C          65.9627   92.7538   11.5093 C.3     1  UNL1        0.0897
     31 C          64.8400   92.3444   10.6027 C.3     1  UNL1        0.0899
@<TRIPOS>BOND
     1    22    23    1
     2    23     1    1
     3     1     2   ar
     4     2     3   ar
     5     3     4   ar
     6     4     5   ar
     7     5     6   ar
     8     5     7   ar
     9     7    24    1
    10    24    25    1
    11    25    26    1
    12    26    27    1
    13    27    28    1
    14    28    29    1
    15    28    30    1
    16    30    31    1
    17     7     8   ar
    18     8     9   ar
    19     9    10    1
    20    10    11    2
    21    10    12    2
    22    10    13    1
    23    13    14   ar
    24    14    15   ar
    25    15    16   ar
    26    16    19    1
    27    19    20    1
    28    19    21    1
    29    16    17   ar
    30    17    18   ar
    31     6     1   ar
    32    31    25    1
    33    18    13   ar
    34     9     4   ar
@<TRIPOS>MOLECULE
*****
 31 34 0 0 0
SMALL
GASTEIGER

@<TRIPOS>ATOM
      1 C          61.5595   85.2804    7.6351 C.ar    1  UNL1        0.1388
      2 C          62.6173   85.3950    8.6924 C.ar    1  UNL1        0.0384
      3 C          62.7355   86.6524    9.5018 C.ar    1  UNL1        0.0221
      4 C          61.7959   87.7950    9.2540 C.ar    1  UNL1        0.0825
      5 C          60.7381   87.6803    8.1967 C.ar    1  UNL1        0.0194
      6 C          60.6199   86.4230    7.3873 C.ar    1  UNL1        0.0382
      7 C          59.9601   88.9627    8.1783 C.ar    1  UNL1        0.0144
      8 C          60.5372   89.8699    9.2242 C.ar    1  UNL1        0.0970
      9 N          61.6717   89.1483    9.8890 N.ar    1  UNL1       -0.2080
     10 S          62.5312   89.6855   10.9947 S.O2    1  UNL1        0.0860
     11 O          61.8904   88.7299   11.9571 O.2     1  UNL1       -0.1476
     12 O          63.1721   90.6410   10.0323 O.2     1  UNL1       -0.1476
     13 C          63.3908   90.2228   12.1004 C.ar    1  UNL1        0.1277
     14 C          63.4289   89.5248   13.4275 C.ar    1  UNL1        0.0201
     15 C          64.2884   90.0621   14.5332 C.ar    1  UNL1       -0.0029
     16 C          65.1100   91.2974   14.3117 C.ar    1  UNL1       -0.0224
     17 C          65.0719   91.9954   12.9845 C.ar    1  UNL1       -0.0029
     18 C          64.2123   91.4581   11.8789 C.ar    1  UNL1        0.0201
     19 C          65.9695   91.8347   15.4173 C.3     1  UNL1        0.0224
     20 C          65.3349   92.4056   16.6508 C.3     1  UNL1        0.0047
     21 C          67.4637   91.8012   15.2895 C.3     1  UNL1        0.0047
     22 C          61.7026   84.0544    5.3490 C.3     1  UNL1        0.2525
     23 O          61.4413   84.0230    6.8257 O.3     1  UNL1       -0.4714
     24 C          58.8075   89.2818    7.2730 C.3     1  UNL1        0.1008
     25 N          58.9968   90.2244    6.1216 N.3     1  UNL1       -0.2665
     26 C          57.8123   90.9201    5.5192 C.3     1  UNL1        0.0899
     27 C          58.0016   91.8626    4.3678 C.3     1  UNL1        0.0897
     28 N          59.3755   92.1096    3.8187 N.3     1  UNL1       -0.2691
     29 C          59.5649   93.0521    2.6673 C.3     1  UNL1        0.0897
     30 C          60.5601   91.4138    4.4212 C.3     1  UNL1        0.0897
     31 C          60.3708   90.4713    5.5726 C.3     1  UNL1        0.0899
@<TRIPOS>BOND
     1    22    23    1
     2    23     1    1
     3     1     2   ar
     4     2     3   ar
     5     3     4   ar
     6     4     5   ar
     7     5     6   ar
     8     5     7   ar
     9     7    24    1
    10    24    25    1
    11    25    26    1
    12    26    27    1
    13    27    28    1
    14    28    29    1
    15    28    30    1
    16    30    31    1
    17     7     8   ar
    18     8     9   ar
    19     9    10    1
    20    10    11    2
    21    10    12    2
    22    10    13    1
    23    13    14   ar
    24    14    15   ar
    25    15    16   ar
    26    16    19    1
    27    19    20    1
    28    19    21    1
    29    16    17   ar
    30    17    18   ar
    31     6     1   ar
    32    31    25    1
    33    18    13   ar
    34     9     4   ar
