@<TRIPOS>MOLECULE
*****
 28 32 0 0 0
SMALL
GASTEIGER

@<TRIPOS>ATOM
      1 C          62.5251   86.8479   11.5387 C.2     1  UNL1        0.0651
      2 C          63.3377   87.8343   12.3239 C.2     1  UNL1        0.0608
      3 C          63.0689   89.3038   12.1889 C.2     1  UNL1        0.1964
      4 N          61.9874   89.7870   11.2686 N.2     1  UNL1       -0.0377
      5 C          61.1748   88.8006   10.4834 C.2     1  UNL1        0.3607
      6 N          60.0517   88.9784    9.5051 N.2     1  UNL1       -0.0343
      7 C          59.6264   87.6188    9.0355 C.2     1  UNL1        0.2321
      8 C          60.4866   86.6007    9.7236 C.2     1  UNL1        0.0423
      9 C          61.4436   87.3311   10.6184 C.3     1  UNL1        0.1762
     10 C          63.6761   81.8262   10.3818 C.3     1  UNL1        0.1352
     11 N          63.3229   83.0702   11.1420 N.ar    1  UNL1       -0.2762
     12 C          63.1386   84.4388   10.5564 C.ar    1  UNL1        0.3353
     13 O          63.2751   84.8038    9.1079 O.2     1  UNL1       -0.2459
     14 N          62.7939   85.3784   11.6737 N.ar    1  UNL1       -0.2615
     15 C          62.7652   84.5904   12.9498 C.ar    1  UNL1        0.0868
     16 C          62.4835   84.9876   14.3685 C.ar    1  UNL1        0.0398
     17 C          62.5288   83.9583   15.4586 C.ar    1  UNL1        0.1005
     18 N          62.8558   82.5317   15.1300 N.ar    1  UNL1       -0.2407
     19 C          63.1374   82.1345   13.7112 C.ar    1  UNL1        0.1176
     20 C          63.0921   83.1639   12.6212 C.ar    1  UNL1        0.0993
     21 C          63.8816   90.2902   12.9742 C.ar    1  UNL1        0.0706
     22 C          63.9925   90.1534   14.4638 C.ar    1  UNL1        0.0083
     23 C          64.8051   91.1397   15.2491 C.ar    1  UNL1        0.0299
     24 C          65.5069   92.2629   14.5449 C.ar    1  UNL1        0.1424
     25 F          66.3195   93.2492   15.3302 F       1  UNL1       -0.2041
     26 C          65.3960   92.3996   13.0552 C.ar    1  UNL1        0.0594
     27 C          64.5833   91.4133   12.2700 C.ar    1  UNL1        0.1459
     28 F          64.4725   91.5501   10.7803 F       1  UNL1       -0.2040
@<TRIPOS>BOND
     1    10    11    1
     2    11    12   ar
     3    12    13    2
     4    12    14   ar
     5    14     1    1
     6     1     2    2
     7     2     3    1
     8     3    21    1
     9    21    22   ar
    10    22    23   ar
    11    23    24   ar
    12    24    25    1
    13    24    26   ar
    14    26    27   ar
    15    27    28    1
    16     3     4    2
    17     4     5    1
    18     5     6    2
    19     6     7    1
    20     7     8    2
    21     8     9    1
    22    14    15   ar
    23    15    16   ar
    24    16    17   ar
    25    17    18   ar
    26    18    19   ar
    27    19    20   ar
    28    20    11   ar
    29     9     1    1
    30    20    15   ar
    31    27    21   ar
    32     9     5    1
@<TRIPOS>MOLECULE
*****
 28 32 0 0 0
SMALL
GASTEIGER

@<TRIPOS>ATOM
      1 C          63.1525   89.1844   12.5372 C.2     1  UNL1        0.0651
      2 C          63.5315   87.7573   12.8010 C.2     1  UNL1        0.0608
      3 C          62.7180   86.6438   12.2108 C.2     1  UNL1        0.1964
      4 N          61.5254   86.9573   11.3568 N.2     1  UNL1       -0.0377
      5 C          61.1463   88.3845   11.0929 C.2     1  UNL1        0.3607
      6 N          60.0320   88.9962   10.2967 N.2     1  UNL1       -0.0343
      7 C          60.1568   90.4878   10.3948 C.2     1  UNL1        0.2321
      8 C          61.3483   90.7979   11.2517 C.2     1  UNL1        0.0423
      9 C          61.9598   89.4980   11.6831 C.3     1  UNL1        0.1762
     10 C          65.6461   92.2901   16.0037 C.3     1  UNL1        0.1352
     11 N          65.1122   91.7254   14.7207 N.ar    1  UNL1       -0.2762
     12 C          64.2732   90.4897   14.5830 C.ar    1  UNL1        0.3353
     13 O          63.8209   89.6016   15.7040 O.2     1  UNL1       -0.2459
     14 N          63.9660   90.2979   13.1273 N.ar    1  UNL1       -0.2615
     15 C          64.6151   91.4151   12.3654 C.ar    1  UNL1        0.0868
     16 C          64.6526   91.7430   10.9022 C.ar    1  UNL1        0.0398
     17 C          65.3985   92.9533   10.4238 C.ar    1  UNL1        0.1005
     18 N          66.1069   93.8355   11.4086 N.ar    1  UNL1       -0.2407
     19 C          66.0694   93.5076   12.8718 C.ar    1  UNL1        0.1176
     20 C          65.3235   92.2974   13.3502 C.ar    1  UNL1        0.0993
     21 C          63.0971   85.2167   12.4747 C.ar    1  UNL1        0.0706
     22 C          62.7348   84.1491   11.4852 C.ar    1  UNL1        0.0083
     23 C          63.1139   82.7220   11.7490 C.ar    1  UNL1        0.0299
     24 C          63.8553   82.3624   13.0024 C.ar    1  UNL1        0.1424
     25 F          64.2344   80.9352   13.2662 F       1  UNL1       -0.2041
     26 C          64.2176   83.4299   13.9919 C.ar    1  UNL1        0.0594
     27 C          63.8385   84.8570   13.7280 C.ar    1  UNL1        0.1459
     28 F          64.2009   85.9245   14.7176 F       1  UNL1       -0.2040
@<TRIPOS>BOND
     1    10    11    1
     2    11    12   ar
     3    12    13    2
     4    12    14   ar
     5    14     1    1
     6     1     2    2
     7     2     3    1
     8     3    21    1
     9    21    22   ar
    10    22    23   ar
    11    23    24   ar
    12    24    25    1
    13    24    26   ar
    14    26    27   ar
    15    27    28    1
    16     3     4    2
    17     4     5    1
    18     5     6    2
    19     6     7    1
    20     7     8    2
    21     8     9    1
    22    14    15   ar
    23    15    16   ar
    24    16    17   ar
    25    17    18   ar
    26    18    19   ar
    27    19    20   ar
    28    20    11   ar
    29     9     1    1
    30    20    15   ar
    31    27    21   ar
    32     9     5    1
@<TRIPOS>MOLECULE
*****
 28 32 0 0 0
SMALL
GASTEIGER

@<TRIPOS>ATOM
      1 C          62.6408   87.4049   11.8762 C.2     1  UNL1        0.0651
      2 C          63.5696   88.3680   12.5540 C.2     1  UNL1        0.0608
      3 C          63.3121   89.8434   12.4703 C.2     1  UNL1        0.1964
      4 N          62.1257   90.3556   11.7087 N.2     1  UNL1       -0.0377
      5 C          61.1968   89.3925   11.0308 C.2     1  UNL1        0.3607
      6 N          59.9558   89.6008   10.2145 N.2     1  UNL1       -0.0343
      7 C          59.4463   88.2542    9.7938 C.2     1  UNL1        0.2321
      8 C          60.3724   87.2136   10.3500 C.2     1  UNL1        0.0423
      9 C          61.4543   87.9171   11.1145 C.3     1  UNL1        0.1762
     10 C          63.3049   82.3394   10.5419 C.3     1  UNL1        0.1352
     11 N          63.2036   83.6012   11.3466 N.ar    1  UNL1       -0.2762
     12 C          62.9024   84.9685   10.8082 C.ar    1  UNL1        0.3353
     13 O          62.6498   85.3140    9.3706 O.2     1  UNL1       -0.2459
     14 N          62.8983   85.9295   11.9599 N.ar    1  UNL1       -0.2615
     15 C          63.1969   85.1562   13.2100 C.ar    1  UNL1        0.0868
     16 C          63.3214   85.5765   14.6445 C.ar    1  UNL1        0.0398
     17 C          63.6346   84.5577   15.7000 C.ar    1  UNL1        0.1005
     18 N          63.8232   83.1187   15.3210 N.ar    1  UNL1       -0.2407
     19 C          63.6987   82.6985   13.8865 C.ar    1  UNL1        0.1176
     20 C          63.3856   83.7172   12.8310 C.ar    1  UNL1        0.0993
     21 C          64.2410   90.8065   13.1482 C.ar    1  UNL1        0.0706
     22 C          64.8872   91.9066   12.3593 C.ar    1  UNL1        0.0083
     23 C          65.8161   92.8697   13.0372 C.ar    1  UNL1        0.0299
     24 C          66.0989   92.7329   14.5039 C.ar    1  UNL1        0.1424
     25 F          67.0278   93.6960   15.1818 F       1  UNL1       -0.2041
     26 C          65.4526   91.6328   15.2927 C.ar    1  UNL1        0.0594
     27 C          64.5238   90.6697   14.6149 C.ar    1  UNL1        0.1459
     28 F          63.8776   89.5696   15.4038 F       1  UNL1       -0.2040
@<TRIPOS>BOND
     1    10    11    1
     2    11    12   ar
     3    12    13    2
     4    12    14   ar
     5    14     1    1
     6     1     2    2
     7     2     3    1
     8     3    21    1
     9    21    22   ar
    10    22    23   ar
    11    23    24   ar
    12    24    25    1
    13    24    26   ar
    14    26    27   ar
    15    27    28    1
    16     3     4    2
    17     4     5    1
    18     5     6    2
    19     6     7    1
    20     7     8    2
    21     8     9    1
    22    14    15   ar
    23    15    16   ar
    24    16    17   ar
    25    17    18   ar
    26    18    19   ar
    27    19    20   ar
    28    20    11   ar
    29     9     1    1
    30    20    15   ar
    31    27    21   ar
    32     9     5    1
@<TRIPOS>MOLECULE
*****
 28 32 0 0 0
SMALL
GASTEIGER

@<TRIPOS>ATOM
      1 C          62.9961   87.3053   12.4390 C.2     1  UNL1        0.0651
      2 C          63.8697   88.3772   13.0200 C.2     1  UNL1        0.0608
      3 C          63.6376   89.8136   12.6553 C.2     1  UNL1        0.1964
      4 N          62.5319   90.1780   11.7096 N.2     1  UNL1       -0.0377
      5 C          61.6582   89.1061   11.1285 C.2     1  UNL1        0.3607
      6 N          60.4996   89.1615   10.1774 N.2     1  UNL1       -0.0343
      7 C          60.0157   87.7593    9.9543 C.2     1  UNL1        0.2321
      8 C          60.8752   86.8374   10.7675 C.2     1  UNL1        0.0423
      9 C          61.8903   87.6697   11.4932 C.3     1  UNL1        0.1762
     10 C          63.7238   82.8903   15.2424 C.3     1  UNL1        0.1352
     11 N          63.5627   83.8396   14.0922 N.ar    1  UNL1       -0.2762
     12 C          63.3280   85.3175   14.1950 C.ar    1  UNL1        0.3353
     13 O          63.2131   86.1057   15.4661 O.2     1  UNL1       -0.2459
     14 N          63.2282   85.8689   12.8036 N.ar    1  UNL1       -0.2615
     15 C          63.4013   84.7318   11.8409 C.ar    1  UNL1        0.0868
     16 C          63.3974   84.6763   10.3419 C.ar    1  UNL1        0.0398
     17 C          63.6002   83.3667    9.6394 C.ar    1  UNL1        0.1005
     18 N          63.8070   82.1124   10.4358 N.ar    1  UNL1       -0.2407
     19 C          63.8109   82.1679   11.9347 C.ar    1  UNL1        0.1176
     20 C          63.6081   83.4776   12.6372 C.ar    1  UNL1        0.0993
     21 C          64.5113   90.8855   13.2364 C.ar    1  UNL1        0.0706
     22 C          64.8222   90.8862   14.7039 C.ar    1  UNL1        0.0083
     23 C          65.6958   91.9581   15.2850 C.ar    1  UNL1        0.0299
     24 C          66.2586   93.0294   14.3987 C.ar    1  UNL1        0.1424
     25 F          67.1323   94.1013   14.9798 F       1  UNL1       -0.2041
     26 C          65.9478   93.0287   12.9313 C.ar    1  UNL1        0.0594
     27 C          65.0741   91.9568   12.3502 C.ar    1  UNL1        0.1459
     28 F          64.7633   91.9562   10.8827 F       1  UNL1       -0.2040
@<TRIPOS>BOND
     1    10    11    1
     2    11    12   ar
     3    12    13    2
     4    12    14   ar
     5    14     1    1
     6     1     2    2
     7     2     3    1
     8     3    21    1
     9    21    22   ar
    10    22    23   ar
    11    23    24   ar
    12    24    25    1
    13    24    26   ar
    14    26    27   ar
    15    27    28    1
    16     3     4    2
    17     4     5    1
    18     5     6    2
    19     6     7    1
    20     7     8    2
    21     8     9    1
    22    14    15   ar
    23    15    16   ar
    24    16    17   ar
    25    17    18   ar
    26    18    19   ar
    27    19    20   ar
    28    20    11   ar
    29     9     1    1
    30    20    15   ar
    31    27    21   ar
    32     9     5    1
@<TRIPOS>MOLECULE
*****
 28 32 0 0 0
SMALL
GASTEIGER

@<TRIPOS>ATOM
      1 C          63.6604   88.9940   13.2172 C.2     1  UNL1        0.0651
      2 C          62.7932   89.1876   12.0088 C.2     1  UNL1        0.0608
      3 C          62.2070   87.9980   11.3079 C.2     1  UNL1        0.1964
      4 N          62.4881   86.6147   11.8154 N.2     1  UNL1       -0.0377
      5 C          63.3553   86.4210   13.0238 C.2     1  UNL1        0.3607
      6 N          63.8047   85.1876   13.7495 N.2     1  UNL1       -0.0343
      7 C          64.6686   85.6149   14.8989 C.2     1  UNL1        0.2321
      8 C          64.7531   87.1124   14.8836 C.2     1  UNL1        0.0423
      9 C          63.9415   87.6106   13.7248 C.3     1  UNL1        0.1762
     10 C          64.9839   92.4606   16.9737 C.3     1  UNL1        0.1352
     11 N          64.8549   91.7769   15.6448 N.ar    1  UNL1       -0.2762
     12 C          64.1159   90.4990   15.3787 C.ar    1  UNL1        0.3353
     13 O          63.3762   89.6803   16.3949 O.2     1  UNL1       -0.2459
     14 N          64.2465   90.1835   13.9181 N.ar    1  UNL1       -0.2615
     15 C          65.0662   91.2665   13.2815 C.ar    1  UNL1        0.0868
     16 C          65.5188   91.4831   11.8679 C.ar    1  UNL1        0.0398
     17 C          66.3474   92.6845   11.5215 C.ar    1  UNL1        0.1005
     18 N          66.7234   93.6693   12.5886 N.ar    1  UNL1       -0.2407
     19 C          66.2708   93.4527   14.0022 C.ar    1  UNL1        0.1176
     20 C          65.4422   92.2513   14.3486 C.ar    1  UNL1        0.0993
     21 C          61.3397   88.1916   10.0994 C.ar    1  UNL1        0.0706
     22 C          61.0314   89.5762    9.6116 C.ar    1  UNL1        0.0083
     23 C          60.1641   89.7699    8.4032 C.ar    1  UNL1        0.0299
     24 C          59.6052   88.5790    7.6824 C.ar    1  UNL1        0.1424
     25 F          58.7380   88.7727    6.4740 F       1  UNL1       -0.2041
     26 C          59.9136   87.1945    8.1702 C.ar    1  UNL1        0.0594
     27 C          60.7809   87.0008    9.3786 C.ar    1  UNL1        0.1459
     28 F          61.0892   85.6162    9.8663 F       1  UNL1       -0.2040
@<TRIPOS>BOND
     1    10    11    1
     2    11    12   ar
     3    12    13    2
     4    12    14   ar
     5    14     1    1
     6     1     2    2
     7     2     3    1
     8     3    21    1
     9    21    22   ar
    10    22    23   ar
    11    23    24   ar
    12    24    25    1
    13    24    26   ar
    14    26    27   ar
    15    27    28    1
    16     3     4    2
    17     4     5    1
    18     5     6    2
    19     6     7    1
    20     7     8    2
    21     8     9    1
    22    14    15   ar
    23    15    16   ar
    24    16    17   ar
    25    17    18   ar
    26    18    19   ar
    27    19    20   ar
    28    20    11   ar
    29     9     1    1
    30    20    15   ar
    31    27    21   ar
    32     9     5    1
@<TRIPOS>MOLECULE
*****
 28 32 0 0 0
SMALL
GASTEIGER

@<TRIPOS>ATOM
      1 C          62.7794   88.6519   11.9494 C.2     1  UNL1        0.0651
      2 C          63.1698   87.2715   12.3872 C.2     1  UNL1        0.0608
      3 C          62.4736   86.0758   11.8077 C.2     1  UNL1        0.1964
      4 N          61.3869   86.2607   10.7904 N.2     1  UNL1       -0.0377
      5 C          60.9964   87.6412   10.3525 C.2     1  UNL1        0.3607
      6 N          59.9702   88.1313    9.3744 N.2     1  UNL1       -0.0343
      7 C          60.0322   89.6298    9.3495 C.2     1  UNL1        0.2321
      8 C          61.0967   90.0659   10.3121 C.2     1  UNL1        0.0423
      9 C          61.6926   88.8368   10.9320 C.3     1  UNL1        0.1762
     10 C          65.5002   93.1560   12.3865 C.3     1  UNL1        0.1352
     11 N          64.7262   91.9178   12.7298 N.ar    1  UNL1       -0.2762
     12 C          64.1749   90.9231   11.7517 C.ar    1  UNL1        0.3353
     13 O          64.3009   90.9919   10.2586 O.2     1  UNL1       -0.2459
     14 N          63.4756   89.8476   12.5289 N.ar    1  UNL1       -0.2615
     15 C          63.5946   90.1775   13.9873 C.ar    1  UNL1        0.0868
     16 C          63.0990   89.4781   15.2182 C.ar    1  UNL1        0.0398
     17 C          63.3764   90.0583   16.5734 C.ar    1  UNL1        0.1005
     18 N          64.1494   91.3378   16.6976 N.ar    1  UNL1       -0.2407
     19 C          64.6449   92.0371   15.4666 C.ar    1  UNL1        0.1176
     20 C          64.3675   91.4570   14.1115 C.ar    1  UNL1        0.0993
     21 C          62.8641   84.6953   12.2455 C.ar    1  UNL1        0.0706
     22 C          62.6604   84.2748   13.6709 C.ar    1  UNL1        0.0083
     23 C          63.0509   82.8943   14.1087 C.ar    1  UNL1        0.0299
     24 C          63.6450   81.9342   13.1213 C.ar    1  UNL1        0.1424
     25 F          64.0355   80.5537   13.5591 F       1  UNL1       -0.2041
     26 C          63.8487   82.3547   11.6959 C.ar    1  UNL1        0.0594
     27 C          63.4582   83.7352   11.2580 C.ar    1  UNL1        0.1459
     28 F          63.6619   84.1556    9.8326 F       1  UNL1       -0.2040
@<TRIPOS>BOND
     1    10    11    1
     2    11    12   ar
     3    12    13    2
     4    12    14   ar
     5    14     1    1
     6     1     2    2
     7     2     3    1
     8     3    21    1
     9    21    22   ar
    10    22    23   ar
    11    23    24   ar
    12    24    25    1
    13    24    26   ar
    14    26    27   ar
    15    27    28    1
    16     3     4    2
    17     4     5    1
    18     5     6    2
    19     6     7    1
    20     7     8    2
    21     8     9    1
    22    14    15   ar
    23    15    16   ar
    24    16    17   ar
    25    17    18   ar
    26    18    19   ar
    27    19    20   ar
    28    20    11   ar
    29     9     1    1
    30    20    15   ar
    31    27    21   ar
    32     9     5    1
@<TRIPOS>MOLECULE
*****
 28 32 0 0 0
SMALL
GASTEIGER

@<TRIPOS>ATOM
      1 C          62.9108   88.9911   12.1310 C.2     1  UNL1        0.0651
      2 C          63.3134   87.5936   12.4977 C.2     1  UNL1        0.0608
      3 C          62.5702   86.4239   11.9235 C.2     1  UNL1        0.1964
      4 N          61.4245   86.6518   10.9826 N.2     1  UNL1       -0.0377
      5 C          61.0219   88.0494   10.6159 C.2     1  UNL1        0.3607
      6 N          59.9420   88.5806    9.7205 N.2     1  UNL1       -0.0343
      7 C          60.0178   90.0786    9.7412 C.2     1  UNL1        0.2321
      8 C          61.1445   90.4732   10.6495 C.2     1  UNL1        0.0423
      9 C          61.7650   89.2191   11.1900 C.3     1  UNL1        0.1762
     10 C          65.8025   93.3894   12.5477 C.3     1  UNL1        0.1352
     11 N          64.9831   92.1825   12.8966 N.ar    1  UNL1       -0.2762
     12 C          64.3911   91.2071   11.9229 C.ar    1  UNL1        0.3353
     13 O          64.5146   91.2674   10.4292 O.2     1  UNL1       -0.2459
     14 N          63.6540   90.1608   12.7051 N.ar    1  UNL1       -0.2615
     15 C          63.7904   90.4895   14.1623 C.ar    1  UNL1        0.0868
     16 C          63.2727   89.8125   15.3966 C.ar    1  UNL1        0.0398
     17 C          63.5765   90.3850   16.7494 C.ar    1  UNL1        0.1005
     18 N          64.3980   91.6345   16.8677 N.ar    1  UNL1       -0.2407
     19 C          64.9157   92.3115   15.6334 C.ar    1  UNL1        0.1176
     20 C          64.6119   91.7390   14.2807 C.ar    1  UNL1        0.0993
     21 C          62.9729   85.0262   12.2903 C.ar    1  UNL1        0.0706
     22 C          62.7684   83.9062   11.3138 C.ar    1  UNL1        0.0083
     23 C          63.1710   82.5085   11.6805 C.ar    1  UNL1        0.0299
     24 C          63.7781   82.2309   13.0237 C.ar    1  UNL1        0.1424
     25 F          64.1807   80.8333   13.3905 F       1  UNL1       -0.2041
     26 C          63.9825   83.3510   14.0003 C.ar    1  UNL1        0.0594
     27 C          63.5799   84.7486   13.6335 C.ar    1  UNL1        0.1459
     28 F          63.7844   85.8687   14.6101 F       1  UNL1       -0.2040
@<TRIPOS>BOND
     1    10    11    1
     2    11    12   ar
     3    12    13    2
     4    12    14   ar
     5    14     1    1
     6     1     2    2
     7     2     3    1
     8     3    21    1
     9    21    22   ar
    10    22    23   ar
    11    23    24   ar
    12    24    25    1
    13    24    26   ar
    14    26    27   ar
    15    27    28    1
    16     3     4    2
    17     4     5    1
    18     5     6    2
    19     6     7    1
    20     7     8    2
    21     8     9    1
    22    14    15   ar
    23    15    16   ar
    24    16    17   ar
    25    17    18   ar
    26    18    19   ar
    27    19    20   ar
    28    20    11   ar
    29     9     1    1
    30    20    15   ar
    31    27    21   ar
    32     9     5    1
@<TRIPOS>MOLECULE
*****
 28 32 0 0 0
SMALL
GASTEIGER

@<TRIPOS>ATOM
      1 C          63.4769   87.5905   13.6411 C.2     1  UNL1        0.0651
      2 C          63.4483   86.3230   12.8397 C.2     1  UNL1        0.0608
      3 C          63.2845   85.0019   13.5310 C.2     1  UNL1        0.1964
      4 N          63.1492   84.9484   15.0239 N.2     1  UNL1       -0.0377
      5 C          63.1778   86.2159   15.8255 C.2     1  UNL1        0.3607
      6 N          63.0685   86.4744   17.2990 N.2     1  UNL1       -0.0343
      7 C          63.1649   87.9551   17.5183 C.2     1  UNL1        0.2321
      8 C          63.3337   88.6119   16.1803 C.2     1  UNL1        0.0423
      9 C          63.3416   87.5370   15.1341 C.3     1  UNL1        0.1762
     10 C          63.0447   91.5062   10.1253 C.3     1  UNL1        0.1352
     11 N          63.4421   90.7114   11.3338 N.ar    1  UNL1       -0.2762
     12 C          63.0076   89.3110   11.6499 C.ar    1  UNL1        0.3353
     13 O          62.0994   88.4595   10.8132 O.2     1  UNL1       -0.2459
     14 N          63.6408   88.9116   12.9498 N.ar    1  UNL1       -0.2615
     15 C          64.4666   90.0651   13.4369 C.ar    1  UNL1        0.0868
     16 C          65.3145   90.2464   14.6609 C.ar    1  UNL1        0.0398
     17 C          66.0396   91.5399   14.8861 C.ar    1  UNL1        0.1005
     18 N          65.9168   92.6523   13.8873 N.ar    1  UNL1       -0.2407
     19 C          65.0689   92.4711   12.6634 C.ar    1  UNL1        0.1176
     20 C          64.3438   91.1775   12.4381 C.ar    1  UNL1        0.0993
     21 C          63.2559   83.7344   12.7295 C.ar    1  UNL1        0.0706
     22 C          63.9537   83.6698   11.4032 C.ar    1  UNL1        0.0083
     23 C          63.9251   82.4022   10.6016 C.ar    1  UNL1        0.0299
     24 C          63.1988   81.1993   11.1263 C.ar    1  UNL1        0.1424
     25 F          63.1702   79.9317   10.3247 F       1  UNL1       -0.2041
     26 C          62.5010   81.2639   12.4525 C.ar    1  UNL1        0.0594
     27 C          62.5295   82.5314   13.2541 C.ar    1  UNL1        0.1459
     28 F          61.8317   82.5959   14.5803 F       1  UNL1       -0.2040
@<TRIPOS>BOND
     1    10    11    1
     2    11    12   ar
     3    12    13    2
     4    12    14   ar
     5    14     1    1
     6     1     2    2
     7     2     3    1
     8     3    21    1
     9    21    22   ar
    10    22    23   ar
    11    23    24   ar
    12    24    25    1
    13    24    26   ar
    14    26    27   ar
    15    27    28    1
    16     3     4    2
    17     4     5    1
    18     5     6    2
    19     6     7    1
    20     7     8    2
    21     8     9    1
    22    14    15   ar
    23    15    16   ar
    24    16    17   ar
    25    17    18   ar
    26    18    19   ar
    27    19    20   ar
    28    20    11   ar
    29     9     1    1
    30    20    15   ar
    31    27    21   ar
    32     9     5    1
@<TRIPOS>MOLECULE
*****
 28 32 0 0 0
SMALL
GASTEIGER

@<TRIPOS>ATOM
      1 C          61.6500   94.3668   -0.6741 C.2     1  UNL1        0.0651
      2 C          60.2691   94.6602   -1.1808 C.2     1  UNL1        0.0608
      3 C          59.0716   94.1881   -0.4106 C.2     1  UNL1        0.1964
      4 N          59.2550   93.4227    0.8663 N.2     1  UNL1       -0.0377
      5 C          60.6360   93.1292    1.3729 C.2     1  UNL1        0.3607
      6 N          61.1250   92.4019    2.5903 N.2     1  UNL1       -0.0343
      7 C          62.6248   92.4245    2.5724 C.2     1  UNL1        0.2321
      8 C          63.0627   93.1657    1.3441 C.2     1  UNL1        0.0423
      9 C          61.8335   93.6013    0.6028 C.3     1  UNL1        0.1762
     10 C          66.1217   96.8540   -1.9775 C.3     1  UNL1        0.1352
     11 N          64.9029   95.9821   -2.0434 N.ar    1  UNL1       -0.2762
     12 C          63.8954   95.7908   -0.9487 C.ar    1  UNL1        0.3353
     13 O          63.9298   96.4379    0.4042 O.2     1  UNL1       -0.2459
     14 N          62.8476   94.8388   -1.4443 N.ar    1  UNL1       -0.2615
     15 C          63.2074   94.4417   -2.8453 C.ar    1  UNL1        0.0868
     16 C          62.5425   93.5281   -3.8317 C.ar    1  UNL1        0.0398
     17 C          63.1478   93.3210   -5.1884 C.ar    1  UNL1        0.1005
     18 N          64.4181   94.0275   -5.5586 N.ar    1  UNL1       -0.2407
     19 C          65.0831   94.9412   -4.5722 C.ar    1  UNL1        0.1176
     20 C          64.4777   95.1483   -3.2156 C.ar    1  UNL1        0.0993
     21 C          57.6906   94.4816   -0.9173 C.ar    1  UNL1        0.0706
     22 C          57.2332   95.9022   -1.0685 C.ar    1  UNL1        0.0083
     23 C          55.8523   96.1956   -1.5752 C.ar    1  UNL1        0.0299
     24 C          54.9285   95.0685   -1.9307 C.ar    1  UNL1        0.1424
     25 F          53.5476   95.3620   -2.4374 F       1  UNL1       -0.2041
     26 C          55.3859   93.6480   -1.7795 C.ar    1  UNL1        0.0594
     27 C          56.7669   93.3545   -1.2728 C.ar    1  UNL1        0.1459
     28 F          57.2241   91.9339   -1.1217 F       1  UNL1       -0.2040
@<TRIPOS>BOND
     1    10    11    1
     2    11    12   ar
     3    12    13    2
     4    12    14   ar
     5    14     1    1
     6     1     2    2
     7     2     3    1
     8     3    21    1
     9    21    22   ar
    10    22    23   ar
    11    23    24   ar
    12    24    25    1
    13    24    26   ar
    14    26    27   ar
    15    27    28    1
    16     3     4    2
    17     4     5    1
    18     5     6    2
    19     6     7    1
    20     7     8    2
    21     8     9    1
    22    14    15   ar
    23    15    16   ar
    24    16    17   ar
    25    17    18   ar
    26    18    19   ar
    27    19    20   ar
    28    20    11   ar
    29     9     1    1
    30    20    15   ar
    31    27    21   ar
    32     9     5    1
