@<TRIPOS>MOLECULE
*****
 27 28 0 0 0
SMALL
GASTEIGER

@<TRIPOS>ATOM
      1 C          64.9457   92.0055   13.0836 C.ar    1  UNK1        0.1680
      2 N          63.9284   91.0501   13.6335 N.ar    1  UNK1       -0.2356
      3 C          62.9560   90.3771   12.7108 C.ar    0  UNK0        0.1074
      4 C          63.0008   90.6593   11.2383 C.ar    1  UNK1        0.0639
      5 C          64.0181   91.6147   10.6885 C.ar    1  UNK1        0.0481
      6 C          64.9905   92.2878   11.6111 C.ar    1  UNK1        0.1563
      7 O          66.0079   93.2431   11.0612 O.3     1  UNK1       -0.5038
      8 H          66.0359   93.4195   10.1414 H       1  UNK1        0.2923
      9 N          66.6045   91.8870   15.0797 N.am    2  GLY2       -0.2946
     10 C          65.9182   92.6786   14.0062 C.2     1  UNK1        0.2669
     11 O          66.2044   94.1432   13.8555 O.2     1  UNK1       -0.2684
     12 H          66.4167   90.9256   15.1786 H       2  GLY2        0.1501
     13 CA         67.5770   92.5600   16.0023 C.3     2  GLY2        0.1319
     14 O          69.4711   92.5922   14.2242 O.co2   2  GLY2       -0.5474
     15 C          68.8333   93.1687   15.4534 C.2     2  GLY2        0.0702
     16 OXT        69.4519   94.3538   16.1337 O.co2   2  GLY2       -0.5474
     17 C          62.0283   89.9863   10.3157 C.1     1  UNK1       -0.0591
     18 C          61.0558   89.3132    9.3931 C.1     1  UNK1       -0.0392
     19 C          60.0833   88.6401    8.4704 C.3     1  UNK1        0.2814
     20 O          59.8803   87.1560    8.5478 O.3     1  UNK1       -0.4612
     21 C          61.0035   86.2676    8.9941 C.ar    1  UNK1        0.1401
     22 C          61.1942   85.9752   10.4529 C.ar    1  UNK1        0.0378
     23 C          62.3174   85.0868   10.8992 C.ar    1  UNK1        0.0145
     24 C          63.2498   84.4907    9.8866 C.ar    1  UNK1        0.0579
     25 CL         64.3730   83.6023   10.3328 Cl      1  UNK1       -0.0822
     26 C          63.0591   84.7830    8.4278 C.ar    1  UNK1        0.0145
     27 C          61.9359   85.6715    7.9815 C.ar    1  UNK1        0.0378
@<TRIPOS>UNITY_ATOM_ATTR
14 1
charge -1
@<TRIPOS>BOND
     1    14    15   ar
     2    15    16   ar
     3    15    13    1
     4    13     9    1
     5     9    10   am
     6    10    11    2
     7    10     1    1
     8     1     2   ar
     9     2     3   ar
    10     3     4   ar
    11     4    17    1
    12    17    18    3
    13    18    19    1
    14    19    20    1
    15    20    21    1
    16    21    22   ar
    17    22    23   ar
    18    23    24   ar
    19    24    25    1
    20    24    26   ar
    21    26    27   ar
    22     4     5   ar
    23     5     6   ar
    24     6     7    1
    25     6     1   ar
    26    27    21   ar
    27     9    12    1
    28     7     8    1
@<TRIPOS>MOLECULE
*****
 27 28 0 0 0
SMALL
GASTEIGER

@<TRIPOS>ATOM
      1 C          65.3960   92.3406   12.6741 C.ar    1  UNK1        0.1680
      2 N          64.2699   91.5024   12.1456 N.ar    1  UNK1       -0.2356
      3 C          63.9037   90.2197   12.8316 C.ar    0  UNK0        0.1074
      4 C          64.6636   89.7751   14.0460 C.ar    1  UNK1        0.0639
      5 C          65.7898   90.6132   14.5744 C.ar    1  UNK1        0.0481
      6 C          66.1559   91.8960   13.8885 C.ar    1  UNK1        0.1563
      7 O          67.2821   92.7341   14.4170 O.3     1  UNK1       -0.5038
      8 H          67.7568   92.4564   15.1756 H       1  UNK1        0.2923
      9 N          65.6432   93.7370   10.4972 N.am    2  GLY2       -0.2946
     10 C          65.7622   93.6233   11.9882 C.2     1  UNK1        0.2669
     11 O          66.2474   94.7923   12.7931 O.2     1  UNK1       -0.2684
     12 H          65.3248   92.9698    9.9689 H       2  GLY2        0.1501
     13 CA         66.0094   95.0198    9.8113 C.3     2  GLY2        0.1319
     14 O          67.6399   96.2949    8.2411 O.co2   2  GLY2       -0.5474
     15 C          67.3784   95.1912    9.2226 C.2     2  GLY2        0.0702
     16 OXT        68.4858   94.2587    9.6153 O.co2   2  GLY2       -0.5474
     17 C          64.2975   88.4924   14.7319 C.1     1  UNK1       -0.0591
     18 C          63.9313   87.2096   15.4178 C.1     1  UNK1       -0.0392
     19 C          63.5651   85.9269   16.1038 C.3     1  UNK1        0.2814
     20 O          62.4004   85.1195   15.6122 O.3     1  UNK1       -0.4612
     21 C          62.5708   84.1889   14.4482 C.ar    1  UNK1        0.1401
     22 C          62.9045   84.7371   13.0923 C.ar    1  UNK1        0.0378
     23 C          63.0749   83.8066   11.9283 C.ar    1  UNK1        0.0145
     24 C          62.9117   82.3278   12.1201 C.ar    1  UNK1        0.0579
     25 CL         63.0821   81.3973   10.9560 Cl      1  UNK1       -0.0822
     26 C          62.5780   81.7797   13.4759 C.ar    1  UNK1        0.0145
     27 C          62.4076   82.7103   14.6399 C.ar    1  UNK1        0.0378
@<TRIPOS>UNITY_ATOM_ATTR
14 1
charge -1
@<TRIPOS>BOND
     1    14    15   ar
     2    15    16   ar
     3    15    13    1
     4    13     9    1
     5     9    10   am
     6    10    11    2
     7    10     1    1
     8     1     2   ar
     9     2     3   ar
    10     3     4   ar
    11     4    17    1
    12    17    18    3
    13    18    19    1
    14    19    20    1
    15    20    21    1
    16    21    22   ar
    17    22    23   ar
    18    23    24   ar
    19    24    25    1
    20    24    26   ar
    21    26    27   ar
    22     4     5   ar
    23     5     6   ar
    24     6     7    1
    25     6     1   ar
    26    27    21   ar
    27     9    12    1
    28     7     8    1
@<TRIPOS>MOLECULE
*****
 27 28 0 0 0
SMALL
GASTEIGER

@<TRIPOS>ATOM
      1 C          63.4090   85.7271   13.0508 C.ar    1  UNK1        0.1680
      2 N          63.0348   86.9693   12.2980 N.ar    1  UNK1       -0.2356
      3 C          63.4277   88.3156   12.8300 C.ar    0  UNK0        0.1074
      4 C          64.1948   88.4197   14.1147 C.ar    1  UNK1        0.0639
      5 C          64.5690   87.1775   14.8675 C.ar    1  UNK1        0.0481
      6 C          64.1761   85.8311   14.3356 C.ar    1  UNK1        0.1563
      7 O          64.5503   84.5888   15.0884 O.3     1  UNK1       -0.5038
      8 H          65.0295   84.6539   15.8910 H       1  UNK1        0.2923
      9 N          62.6403   83.2803   13.4664 N.am    2  GLY2       -0.2946
     10 C          63.0160   84.3807   12.5188 C.2     1  UNK1        0.2669
     11 O          62.9988   84.1348   11.0393 O.2     1  UNK1       -0.2684
     12 H          62.6516   83.4418   14.4375 H       2  GLY2        0.1501
     13 CA         62.2474   81.9340   12.9345 C.3     2  GLY2        0.1319
     14 O          62.8905   79.8691   14.3741 O.co2   2  GLY2       -0.5474
     15 C          61.8570   80.8382   13.8815 C.2     2  GLY2        0.0702
     16 OXT        60.4331   80.7114   14.3358 O.co2   2  GLY2       -0.5474
     17 C          64.5878   89.7661   14.6467 C.1     1  UNK1       -0.0591
     18 C          64.9807   91.1124   15.1787 C.1     1  UNK1       -0.0392
     19 C          65.3736   92.4587   15.7106 C.3     1  UNK1        0.2814
     20 O          66.4814   93.2296   15.0561 O.3     1  UNK1       -0.4612
     21 C          66.8898   92.9076   13.6492 C.ar    1  UNK1        0.1401
     22 C          68.0130   91.9462   13.3956 C.ar    1  UNK1        0.0378
     23 C          68.4214   91.6241   11.9887 C.ar    1  UNK1        0.0145
     24 C          67.7065   92.2635   10.8353 C.ar    1  UNK1        0.0579
     25 CL         68.1149   91.9414    9.4283 Cl      1  UNK1       -0.0822
     26 C          66.5834   93.2248   11.0888 C.ar    1  UNK1        0.0145
     27 C          66.1750   93.5469   12.4958 C.ar    1  UNK1        0.0378
@<TRIPOS>UNITY_ATOM_ATTR
14 1
charge -1
@<TRIPOS>BOND
     1    14    15   ar
     2    15    16   ar
     3    15    13    1
     4    13     9    1
     5     9    10   am
     6    10    11    2
     7    10     1    1
     8     1     2   ar
     9     2     3   ar
    10     3     4   ar
    11     4    17    1
    12    17    18    3
    13    18    19    1
    14    19    20    1
    15    20    21    1
    16    21    22   ar
    17    22    23   ar
    18    23    24   ar
    19    24    25    1
    20    24    26   ar
    21    26    27   ar
    22     4     5   ar
    23     5     6   ar
    24     6     7    1
    25     6     1   ar
    26    27    21   ar
    27     9    12    1
    28     7     8    1
@<TRIPOS>MOLECULE
*****
 27 28 0 0 0
SMALL
GASTEIGER

@<TRIPOS>ATOM
      1 C          64.6454   91.2782   13.8439 C.ar    1  UNK1        0.1680
      2 N          64.7740   91.7904   12.4400 N.ar    1  UNK1       -0.2356
      3 C          63.8627   91.2736   11.3666 C.ar    0  UNK0        0.1074
      4 C          62.8226   90.2445   11.6971 C.ar    1  UNK1        0.0639
      5 C          62.6939   89.7323   13.1010 C.ar    1  UNK1        0.0481
      6 C          63.6053   90.2491   14.1744 C.ar    1  UNK1        0.1563
      7 O          63.4766   89.7368   15.5784 O.3     1  UNK1       -0.5038
      8 H          62.8269   89.0939   15.7848 H       1  UNK1        0.2923
      9 N          67.0397   91.6039   14.7983 N.am    2  GLY2       -0.2946
     10 C          65.5568   91.7950   14.9174 C.2     1  UNK1        0.2669
     11 O          64.9852   92.5029   16.1099 O.2     1  UNK1       -0.2684
     12 H          67.4149   91.1393   14.0156 H       2  GLY2        0.1501
     13 CA         67.9511   92.1207   15.8718 C.3     2  GLY2        0.1319
     14 O          69.9930   93.0222   14.5420 O.co2   2  GLY2       -0.5474
     15 C          68.9172   93.2271   15.5669 C.2     2  GLY2        0.0702
     16 OXT        68.8073   94.5383   16.2871 O.co2   2  GLY2       -0.5474
     17 C          61.9112   89.7277   10.6236 C.1     1  UNK1       -0.0591
     18 C          60.9998   89.2109    9.5502 C.1     1  UNK1       -0.0392
     19 C          60.0885   88.6941    8.4767 C.3     1  UNK1        0.2814
     20 O          60.0342   87.2243    8.1824 O.3     1  UNK1       -0.4612
     21 C          61.0816   86.3081    8.7424 C.ar    1  UNK1        0.1401
     22 C          62.0637   85.6421    7.8247 C.ar    1  UNK1        0.0378
     23 C          63.1111   84.7259    8.3847 C.ar    1  UNK1        0.0145
     24 C          63.1764   84.4757    9.8623 C.ar    1  UNK1        0.0579
     25 CL         64.2238   83.5595   10.4223 Cl      1  UNK1       -0.0822
     26 C          62.1943   85.1417   10.7798 C.ar    1  UNK1        0.0145
     27 C          61.1469   86.0578   10.2199 C.ar    1  UNK1        0.0378
@<TRIPOS>UNITY_ATOM_ATTR
14 1
charge -1
@<TRIPOS>BOND
     1    14    15   ar
     2    15    16   ar
     3    15    13    1
     4    13     9    1
     5     9    10   am
     6    10    11    2
     7    10     1    1
     8     1     2   ar
     9     2     3   ar
    10     3     4   ar
    11     4    17    1
    12    17    18    3
    13    18    19    1
    14    19    20    1
    15    20    21    1
    16    21    22   ar
    17    22    23   ar
    18    23    24   ar
    19    24    25    1
    20    24    26   ar
    21    26    27   ar
    22     4     5   ar
    23     5     6   ar
    24     6     7    1
    25     6     1   ar
    26    27    21   ar
    27     9    12    1
    28     7     8    1
@<TRIPOS>MOLECULE
*****
 27 28 0 0 0
SMALL
GASTEIGER

@<TRIPOS>ATOM
      1 C          60.3623   88.6345    8.7290 C.ar    1  UNK1        0.1680
      2 N          60.7381   89.8196    9.5682 N.ar    1  UNK1       -0.2356
      3 C          61.6076   89.6373   10.7768 C.ar    0  UNK0        0.1074
      4 C          62.1014   88.2699   11.1461 C.ar    1  UNK1        0.0639
      5 C          61.7256   87.0848   10.3069 C.ar    1  UNK1        0.0481
      6 C          60.8561   87.2671    9.0983 C.ar    1  UNK1        0.1563
      7 O          60.4803   86.0820    8.2590 O.3     1  UNK1       -0.5038
      8 H          60.7887   85.2278    8.4898 H       1  UNK1        0.2923
      9 N          59.6452   90.0389    6.6642 N.am    2  GLY2       -0.2946
     10 C          59.4928   88.8168    7.5204 C.2     1  UNK1        0.2669
     11 O          58.4707   87.7770    7.1680 O.2     1  UNK1       -0.2684
     12 H          60.3160   90.7214    6.8955 H       2  GLY2        0.1501
     13 CA         58.7757   90.2212    5.4556 C.3     2  GLY2        0.1319
     14 O          59.1819   92.6868    4.7442 O.co2   2  GLY2       -0.5474
     15 C          58.2397   91.5803    5.1154 C.2     2  GLY2        0.0702
     16 OXT        56.7614   91.8329    5.1464 O.co2   2  GLY2       -0.5474
     17 C          62.9710   88.0876   12.3547 C.1     1  UNK1       -0.0591
     18 C          63.8405   87.9053   13.5632 C.1     1  UNK1       -0.0392
     19 C          64.7101   87.7230   14.7718 C.3     1  UNK1        0.2814
     20 O          65.2070   86.3562   15.1390 O.3     1  UNK1       -0.4612
     21 C          64.3537   85.1515   14.8730 C.ar    1  UNK1        0.1401
     22 C          63.1477   84.8840   15.7239 C.ar    1  UNK1        0.0378
     23 C          62.2944   83.6793   15.4580 C.ar    1  UNK1        0.0145
     24 C          62.6473   82.7421   14.3412 C.ar    1  UNK1        0.0579
     25 CL         61.7941   81.5374   14.0753 Cl      1  UNK1       -0.0822
     26 C          63.8533   83.0096   13.4904 C.ar    1  UNK1        0.0145
     27 C          64.7066   84.2143   13.7563 C.ar    1  UNK1        0.0378
@<TRIPOS>UNITY_ATOM_ATTR
14 1
charge -1
@<TRIPOS>BOND
     1    14    15   ar
     2    15    16   ar
     3    15    13    1
     4    13     9    1
     5     9    10   am
     6    10    11    2
     7    10     1    1
     8     1     2   ar
     9     2     3   ar
    10     3     4   ar
    11     4    17    1
    12    17    18    3
    13    18    19    1
    14    19    20    1
    15    20    21    1
    16    21    22   ar
    17    22    23   ar
    18    23    24   ar
    19    24    25    1
    20    24    26   ar
    21    26    27   ar
    22     4     5   ar
    23     5     6   ar
    24     6     7    1
    25     6     1   ar
    26    27    21   ar
    27     9    12    1
    28     7     8    1
@<TRIPOS>MOLECULE
*****
 27 28 0 0 0
SMALL
GASTEIGER

@<TRIPOS>ATOM
      1 C          63.2164   85.9262   12.9624 C.ar    1  UNK1        0.1680
      2 N          63.9572   86.0110   14.2639 N.ar    1  UNK1       -0.2356
      3 C          64.4410   87.3389   14.7664 C.ar    0  UNK0        0.1074
      4 C          64.1840   88.5821   13.9674 C.ar    1  UNK1        0.0639
      5 C          63.4432   88.4973   12.6659 C.ar    1  UNK1        0.0481
      6 C          62.9594   87.1693   12.1634 C.ar    1  UNK1        0.1563
      7 O          62.2185   87.0846   10.8618 O.3     1  UNK1       -0.5038
      8 H          62.0580   87.8612   10.3626 H       1  UNK1        0.2923
      9 N          62.8930   83.3716   13.3081 N.am    2  GLY2       -0.2946
     10 C          62.7325   84.5983   12.4599 C.2     1  UNK1        0.2669
     11 O          62.0883   84.4969   11.1091 O.2     1  UNK1       -0.2684
     12 H          63.3159   83.4381   14.1947 H       2  GLY2        0.1501
     13 CA         62.4092   82.0437   12.8056 C.3     2  GLY2        0.1319
     14 O          63.1053   80.0899   14.3703 O.co2   2  GLY2       -0.5474
     15 C          62.0392   80.9633   13.7782 C.2     2  GLY2        0.0702
     16 OXT        60.6031   80.7563   14.1587 O.co2   2  GLY2       -0.5474
     17 C          64.6678   89.9100   14.4699 C.1     1  UNK1       -0.0591
     18 C          65.1516   91.2379   14.9724 C.1     1  UNK1       -0.0392
     19 C          65.6354   92.5659   15.4749 C.3     1  UNK1        0.2814
     20 O          66.0730   93.6213   14.5031 O.3     1  UNK1       -0.4612
     21 C          66.6162   93.2269   13.1617 C.ar    1  UNK1        0.1401
     22 C          67.6982   92.1924   13.0653 C.ar    1  UNK1        0.0378
     23 C          68.2413   91.7980   11.7239 C.ar    1  UNK1        0.0145
     24 C          67.7025   92.4381   10.4788 C.ar    1  UNK1        0.0579
     25 CL         68.2457   92.0437    9.1374 Cl      1  UNK1       -0.0822
     26 C          66.6206   93.4726   10.5753 C.ar    1  UNK1        0.0145
     27 C          66.0775   93.8670   11.9167 C.ar    1  UNK1        0.0378
@<TRIPOS>UNITY_ATOM_ATTR
14 1
charge -1
@<TRIPOS>BOND
     1    14    15   ar
     2    15    16   ar
     3    15    13    1
     4    13     9    1
     5     9    10   am
     6    10    11    2
     7    10     1    1
     8     1     2   ar
     9     2     3   ar
    10     3     4   ar
    11     4    17    1
    12    17    18    3
    13    18    19    1
    14    19    20    1
    15    20    21    1
    16    21    22   ar
    17    22    23   ar
    18    23    24   ar
    19    24    25    1
    20    24    26   ar
    21    26    27   ar
    22     4     5   ar
    23     5     6   ar
    24     6     7    1
    25     6     1   ar
    26    27    21   ar
    27     9    12    1
    28     7     8    1
@<TRIPOS>MOLECULE
*****
 27 28 0 0 0
SMALL
GASTEIGER

@<TRIPOS>ATOM
      1 C          60.5209   88.0763    8.7194 C.ar    1  UNK1        0.1680
      2 N          61.6167   88.3528    9.7057 N.ar    1  UNK1       -0.2356
      3 C          62.3798   87.2155   10.3173 C.ar    0  UNK0        0.1074
      4 C          62.0472   85.8017    9.9426 C.ar    1  UNK1        0.0639
      5 C          60.9514   85.5252    8.9563 C.ar    1  UNK1        0.0481
      6 C          60.1883   86.6625    8.3447 C.ar    1  UNK1        0.1563
      7 O          59.0925   86.3860    7.3584 O.3     1  UNK1       -0.5038
      8 H          58.8847   85.5028    7.1243 H       1  UNK1        0.2923
      9 N          59.2654   89.1125    6.6946 N.am    2  GLY2       -0.2946
     10 C          59.7578   89.2137    8.1078 C.2     1  UNK1        0.2669
     11 O          59.4871   90.4523    8.9094 O.2     1  UNK1       -0.2684
     12 H          59.4430   88.2995    6.1684 H       2  GLY2        0.1501
     13 CA         58.5022   90.2498    6.0830 C.3     2  GLY2        0.1319
     14 O          60.6778   91.1231    4.9630 O.co2   2  GLY2       -0.5474
     15 C          59.1907   91.1964    5.1448 C.2     2  GLY2        0.0702
     16 OXT        58.3919   92.2161    4.3884 O.co2   2  GLY2       -0.5474
     17 C          62.8103   84.6643   10.5542 C.1     1  UNK1       -0.0591
     18 C          63.5735   83.5270   11.1659 C.1     1  UNK1       -0.0392
     19 C          64.3366   82.3896   11.7775 C.3     1  UNK1        0.2814
     20 O          64.2827   82.1610   13.2589 O.3     1  UNK1       -0.4612
     21 C          63.9922   83.3052   14.1843 C.ar    1  UNK1        0.1401
     22 C          62.7336   83.3087   15.0005 C.ar    1  UNK1        0.0378
     23 C          62.4430   84.4529   15.9259 C.ar    1  UNK1        0.0145
     24 C          63.4110   85.5936   16.0351 C.ar    1  UNK1        0.0579
     25 CL         63.1205   86.7378   16.9605 Cl      1  UNK1       -0.0822
     26 C          64.6695   85.5900   15.2190 C.ar    1  UNK1        0.0145
     27 C          64.9601   84.4458   14.2936 C.ar    1  UNK1        0.0378
@<TRIPOS>UNITY_ATOM_ATTR
14 1
charge -1
@<TRIPOS>BOND
     1    14    15   ar
     2    15    16   ar
     3    15    13    1
     4    13     9    1
     5     9    10   am
     6    10    11    2
     7    10     1    1
     8     1     2   ar
     9     2     3   ar
    10     3     4   ar
    11     4    17    1
    12    17    18    3
    13    18    19    1
    14    19    20    1
    15    20    21    1
    16    21    22   ar
    17    22    23   ar
    18    23    24   ar
    19    24    25    1
    20    24    26   ar
    21    26    27   ar
    22     4     5   ar
    23     5     6   ar
    24     6     7    1
    25     6     1   ar
    26    27    21   ar
    27     9    12    1
    28     7     8    1
@<TRIPOS>MOLECULE
*****
 27 28 0 0 0
SMALL
GASTEIGER

@<TRIPOS>ATOM
      1 C          63.5157   84.8287   14.4926 C.ar    1  UNK1        0.1680
      2 N          64.0116   85.5945   15.6833 N.ar    1  UNK1       -0.2356
      3 C          64.3127   87.0589   15.5609 C.ar    0  UNK0        0.1074
      4 C          64.1179   87.7575   14.2479 C.ar    1  UNK1        0.0639
      5 C          63.6220   86.9917   13.0573 C.ar    1  UNK1        0.0481
      6 C          63.3209   85.5273   13.1797 C.ar    1  UNK1        0.1563
      7 O          62.8249   84.7616   11.9890 O.3     1  UNK1       -0.5038
      8 H          62.7032   85.1980   11.1688 H       1  UNK1        0.2923
      9 N          61.9217   82.8178   14.0864 N.am    2  GLY2       -0.2946
     10 C          63.2146   83.3644   14.6150 C.2     1  UNK1        0.2669
     11 O          64.2064   82.4466   15.2660 O.2     1  UNK1       -0.2684
     12 H          61.2707   83.4202   13.6591 H       2  GLY2        0.1501
     13 CA         61.6206   81.3534   14.2087 C.3     2  GLY2        0.1319
     14 O          62.8787   80.8893   11.9834 O.co2   2  GLY2       -0.5474
     15 C          62.1995   80.3836   13.2215 C.2     2  GLY2        0.0702
     16 OXT        62.0991   78.9082   13.4725 O.co2   2  GLY2       -0.5474
     17 C          64.4189   89.2218   14.1256 C.1     1  UNK1       -0.0591
     18 C          64.7200   90.6862   14.0032 C.1     1  UNK1       -0.0392
     19 C          65.0211   92.1506   13.8808 C.3     1  UNK1        0.2814
     20 O          66.3970   92.6034   13.4911 O.3     1  UNK1       -0.4612
     21 C          66.6345   93.1992   12.1352 C.ar    1  UNK1        0.1401
     22 C          66.2004   94.6060   11.8476 C.ar    1  UNK1        0.0378
     23 C          66.4379   95.2018   10.4917 C.ar    1  UNK1        0.0145
     24 C          67.1095   94.3909    9.4233 C.ar    1  UNK1        0.0579
     25 CL         67.3470   94.9867    8.0674 Cl      1  UNK1       -0.0822
     26 C          67.5436   92.9842    9.7109 C.ar    1  UNK1        0.0145
     27 C          67.3061   92.3884   11.0668 C.ar    1  UNK1        0.0378
@<TRIPOS>UNITY_ATOM_ATTR
14 1
charge -1
@<TRIPOS>BOND
     1    14    15   ar
     2    15    16   ar
     3    15    13    1
     4    13     9    1
     5     9    10   am
     6    10    11    2
     7    10     1    1
     8     1     2   ar
     9     2     3   ar
    10     3     4   ar
    11     4    17    1
    12    17    18    3
    13    18    19    1
    14    19    20    1
    15    20    21    1
    16    21    22   ar
    17    22    23   ar
    18    23    24   ar
    19    24    25    1
    20    24    26   ar
    21    26    27   ar
    22     4     5   ar
    23     5     6   ar
    24     6     7    1
    25     6     1   ar
    26    27    21   ar
    27     9    12    1
    28     7     8    1
@<TRIPOS>MOLECULE
*****
 27 28 0 0 0
SMALL
GASTEIGER

@<TRIPOS>ATOM
      1 C          63.4368   82.3988   13.7219 C.ar    1  UNK1        0.1680
      2 N          62.7632   83.0515   14.8925 N.ar    1  UNK1       -0.2356
      3 C          62.9684   84.5138   15.1563 C.ar    0  UNK0        0.1074
      4 C          63.8470   85.3234   14.2495 C.ar    1  UNK1        0.0639
      5 C          64.5206   84.6708   13.0789 C.ar    1  UNK1        0.0481
      6 C          64.3155   83.2084   12.8151 C.ar    1  UNK1        0.1563
      7 O          64.9891   82.5558   11.6445 O.3     1  UNK1       -0.5038
      8 H          65.5380   83.0616   11.0780 H       1  UNK1        0.2923
      9 N          62.7565   80.4767   12.1118 N.am    2  GLY2       -0.2946
     10 C          63.2317   80.9365   13.4582 C.2     1  UNK1        0.2669
     11 O          63.5017   79.9340   14.5407 O.2     1  UNK1       -0.2684
     12 H          62.5793   81.1346   11.4012 H       2  GLY2        0.1501
     13 CA         62.5514   79.0143   11.8480 C.3     2  GLY2        0.1319
     14 O          62.7277   79.3282    9.2750 O.co2   2  GLY2       -0.5474
     15 C          62.8343   78.4508   10.4869 C.2     2  GLY2        0.0702
     16 OXT        63.2240   77.0100   10.3379 O.co2   2  GLY2       -0.5474
     17 C          64.0521   86.7857   14.5132 C.1     1  UNK1       -0.0591
     18 C          64.2573   88.2480   14.7770 C.1     1  UNK1       -0.0392
     19 C          64.4624   89.7104   15.0408 C.3     1  UNK1        0.2814
     20 O          63.7923   90.7309   14.1693 O.3     1  UNK1       -0.4612
     21 C          64.5647   91.4057   13.0747 C.ar    1  UNK1        0.1401
     22 C          63.9701   91.5284   11.7030 C.ar    1  UNK1        0.0378
     23 C          64.7425   92.2032   10.6085 C.ar    1  UNK1        0.0145
     24 C          66.1094   92.7553   10.8856 C.ar    1  UNK1        0.0579
     25 CL         66.8818   93.4302    9.7911 Cl      1  UNK1       -0.0822
     26 C          66.7039   92.6326   12.2573 C.ar    1  UNK1        0.0145
     27 C          65.9315   91.9578   13.3518 C.ar    1  UNK1        0.0378
@<TRIPOS>UNITY_ATOM_ATTR
14 1
charge -1
@<TRIPOS>BOND
     1    14    15   ar
     2    15    16   ar
     3    15    13    1
     4    13     9    1
     5     9    10   am
     6    10    11    2
     7    10     1    1
     8     1     2   ar
     9     2     3   ar
    10     3     4   ar
    11     4    17    1
    12    17    18    3
    13    18    19    1
    14    19    20    1
    15    20    21    1
    16    21    22   ar
    17    22    23   ar
    18    23    24   ar
    19    24    25    1
    20    24    26   ar
    21    26    27   ar
    22     4     5   ar
    23     5     6   ar
    24     6     7    1
    25     6     1   ar
    26    27    21   ar
    27     9    12    1
    28     7     8    1
