@<TRIPOS>MOLECULE
*****
 41 46 0 0 0
SMALL
GASTEIGER

@<TRIPOS>ATOM
      1 C          59.2286   88.7457    7.2961 C.2     1  UNL1        0.2252
      2 O          58.2663   87.6039    7.1538 O.2     1  UNL1       -0.2749
      3 N          60.1372   88.8166    8.4874 N.am    1  UNL1       -0.2794
      4 C          60.0836   87.7457    9.5364 C.3     1  UNL1        0.0953
      5 C          60.9923   87.8166   10.7277 C.3     1  UNL1        0.0442
      6 C          61.9546   88.9584   10.8701 C.3     1  UNL1        0.0933
      7 C          62.0082   90.0292    9.8212 C.3     1  UNL1        0.0442
      8 C          61.0995   89.9584    8.6298 C.3     1  UNL1        0.0953
      9 N          62.8633   89.0293   12.0615 N.ar    1  UNL1       -0.2814
     10 C          63.4804   90.2741   12.6268 C.ar    1  UNL1        0.3365
     11 O          63.2972   91.6666   12.1001 O.2     1  UNL1       -0.2459
     12 N          64.3129   89.8819   13.8114 N.ar    1  UNL1       -0.2420
     13 C          64.2103   88.3948   13.9781 C.ar    1  UNL1        0.0877
     14 C          64.8169   87.4523   14.9750 C.ar    1  UNL1        0.0488
     15 C          64.5276   85.9830   14.8903 C.ar    1  UNL1        0.1417
     16 F          65.1343   85.0405   15.8873 F       1  UNL1       -0.2041
     17 C          63.6317   85.4560   13.8088 C.ar    1  UNL1        0.0312
     18 C          63.0251   86.3984   12.8120 C.ar    1  UNL1        0.0211
     19 C          63.3144   87.8678   12.8966 C.ar    1  UNL1        0.0801
     20 C          65.1083   90.8134   14.6772 C.ar    1  UNL1        0.1705
     21 C          64.4435   91.5332   15.8130 C.ar    1  UNL1        0.1363
     22 N          65.2389   92.4647   16.6789 N.ar    1  UNL1       -0.2375
     23 C          66.6992   92.6763   16.4090 C.ar    1  UNL1        0.1196
     24 C          67.3640   91.9565   15.2732 C.ar    1  UNL1        0.1212
     25 N          66.5685   91.0251   14.4074 N.ar    1  UNL1       -0.2231
     26 N          59.3894   91.9584    4.1493 N.3     1  UNL1       -0.2689
     27 C          58.0873   91.6256    4.8155 C.3     1  UNL1        0.0729
     28 C          58.0336   90.5547    5.8645 C.3     1  UNL1        0.0264
     29 C          59.2822   89.8166    6.2472 C.3     1  UNL1        0.0795
     30 C          60.5843   90.1493    5.5810 C.3     1  UNL1        0.0264
     31 C          60.6379   91.2202    4.5320 C.3     1  UNL1        0.0729
     32 C          59.4430   93.0292    3.1003 C.3     1  UNL1        0.0993
     33 N          64.4656   92.9465    1.7708 N.pl3   1  UNL1       -0.3426
     34 C          63.0177   92.9497    1.3785 C.ar    1  UNL1        0.1251
     35 C          61.9542   92.9879    2.4356 C.ar    1  UNL1        0.0310
     36 C          60.5065   92.9911    2.0432 C.ar    1  UNL1       -0.0018
     37 C          60.1222   92.9562    0.5937 C.ar    1  UNL1        0.0179
     38 C          61.1857   92.9180   -0.4634 C.ar    1  UNL1        0.1000
     39 N          62.6335   92.9148   -0.0710 N.ar    1  UNL1       -0.2296
     40 H          64.7178   92.9694    2.7222 H       1  UNL1        0.1437
     41 H          65.1635   92.9215    1.0769 H       1  UNL1        0.1437
@<TRIPOS>BOND
     1    33    34    1
     2    34    35   ar
     3    35    36   ar
     4    36    32    1
     5    32    26    1
     6    26    27    1
     7    27    28    1
     8    28    29    1
     9    29     1    1
    10     1     2    2
    11     1     3   am
    12     3     4    1
    13     4     5    1
    14     5     6    1
    15     6     9    1
    16     9    10   ar
    17    10    11    2
    18    10    12   ar
    19    12    20    1
    20    20    21   ar
    21    21    22   ar
    22    22    23   ar
    23    23    24   ar
    24    24    25   ar
    25    12    13   ar
    26    13    14   ar
    27    14    15   ar
    28    15    16    1
    29    15    17   ar
    30    17    18   ar
    31    18    19   ar
    32     6     7    1
    33     7     8    1
    34    29    30    1
    35    30    31    1
    36    36    37   ar
    37    37    38   ar
    38    38    39   ar
    39    39    34   ar
    40    31    26    1
    41     8     3    1
    42    19     9   ar
    43    25    20   ar
    44    19    13   ar
    45    33    40    1
    46    33    41    1
@<TRIPOS>MOLECULE
*****
 41 46 0 0 0
SMALL
GASTEIGER

@<TRIPOS>ATOM
      1 C          62.5990   86.5592   16.6465 C.2     1  UNL1        0.2252
      2 O          61.6934   86.7197   17.8314 O.2     1  UNL1       -0.2749
      3 N          63.3099   87.7518   16.0789 N.am    1  UNL1       -0.2794
      4 C          63.1152   89.1050   16.6963 C.3     1  UNL1        0.0953
      5 C          63.8261   90.2976   16.1287 C.3     1  UNL1        0.0442
      6 C          64.7318   90.1372   14.9437 C.3     1  UNL1        0.0933
      7 C          64.9264   88.7841   14.3264 C.3     1  UNL1        0.0442
      8 C          64.2155   87.5914   14.8940 C.3     1  UNL1        0.0953
      9 N          65.4427   91.3298   14.3761 N.ar    1  UNL1       -0.2814
     10 C          65.1288   92.0065   13.0747 C.ar    1  UNL1        0.3365
     11 O          64.0489   91.6093   12.1124 O.2     1  UNL1       -0.2459
     12 N          66.0845   93.1501   12.9046 N.ar    1  UNL1       -0.2420
     13 C          66.9890   93.1802   14.1009 C.ar    1  UNL1        0.0877
     14 C          68.1225   94.0867   14.4795 C.ar    1  UNL1        0.0488
     15 C          68.8594   93.8681   15.7676 C.ar    1  UNL1        0.1417
     16 F          69.9929   94.7746   16.1463 F       1  UNL1       -0.2041
     17 C          68.4627   92.7431   16.6771 C.ar    1  UNL1        0.0312
     18 C          67.3292   91.8367   16.2984 C.ar    1  UNL1        0.0211
     19 C          66.5923   92.0552   15.0103 C.ar    1  UNL1        0.0801
     20 C          66.1280   94.0973   11.7424 C.ar    1  UNL1        0.1705
     21 C          66.4308   93.5826   10.3663 C.ar    1  UNL1        0.1363
     22 N          66.4743   94.5298    9.2040 N.ar    1  UNL1       -0.2375
     23 C          66.2151   95.9917    9.4177 C.ar    1  UNL1        0.1196
     24 C          65.9124   96.5063   10.7937 C.ar    1  UNL1        0.1212
     25 N          65.8688   95.5591   11.9560 N.ar    1  UNL1       -0.2231
     26 N          63.1831   82.4998   14.7944 N.3     1  UNL1       -0.2689
     27 C          61.8072   83.0899   14.8895 C.3     1  UNL1        0.0729
     28 C          61.6125   84.4430   15.5068 C.3     1  UNL1        0.0264
     29 C          62.7937   85.2061   16.0291 C.3     1  UNL1        0.0795
     30 C          64.1695   84.6160   15.9340 C.3     1  UNL1        0.0264
     31 C          64.3642   83.2629   15.3167 C.3     1  UNL1        0.0729
     32 C          63.3778   81.1467   14.1770 C.3     1  UNL1        0.0993
     33 N          62.4628   78.2141    9.9862 N.pl3   1  UNL1       -0.3426
     34 C          62.8771   79.5230   10.5906 C.ar    1  UNL1        0.1251
     35 C          62.9203   79.6804   12.0817 C.ar    1  UNL1        0.0310
     36 C          63.3346   80.9893   12.6859 C.ar    1  UNL1       -0.0018
     37 C          63.7057   82.1408   11.7991 C.ar    1  UNL1        0.0179
     38 C          63.6625   81.9833   10.3081 C.ar    1  UNL1        0.1000
     39 N          63.2482   80.6744    9.7038 N.ar    1  UNL1       -0.2296
     40 H          62.2193   77.4583   10.5682 H       1  UNL1        0.1437
     41 H          62.4345   78.1108    9.0076 H       1  UNL1        0.1437
@<TRIPOS>BOND
     1    33    34    1
     2    34    35   ar
     3    35    36   ar
     4    36    32    1
     5    32    26    1
     6    26    27    1
     7    27    28    1
     8    28    29    1
     9    29     1    1
    10     1     2    2
    11     1     3   am
    12     3     4    1
    13     4     5    1
    14     5     6    1
    15     6     9    1
    16     9    10   ar
    17    10    11    2
    18    10    12   ar
    19    12    20    1
    20    20    21   ar
    21    21    22   ar
    22    22    23   ar
    23    23    24   ar
    24    24    25   ar
    25    12    13   ar
    26    13    14   ar
    27    14    15   ar
    28    15    16    1
    29    15    17   ar
    30    17    18   ar
    31    18    19   ar
    32     6     7    1
    33     7     8    1
    34    29    30    1
    35    30    31    1
    36    36    37   ar
    37    37    38   ar
    38    38    39   ar
    39    39    34   ar
    40    31    26    1
    41     8     3    1
    42    19     9   ar
    43    25    20   ar
    44    19    13   ar
    45    33    40    1
    46    33    41    1
@<TRIPOS>MOLECULE
*****
 41 46 0 0 0
SMALL
GASTEIGER

@<TRIPOS>ATOM
      1 C          58.7301   90.5286    5.9368 C.2     1  UNL1        0.2252
      2 O          57.2745   90.8541    6.0956 O.2     1  UNL1       -0.2749
      3 N          59.5226   91.1569    4.8291 N.am    1  UNL1       -0.2794
      4 C          58.8594   92.1108    3.8802 C.3     1  UNL1        0.0953
      5 C          59.6519   92.7392    2.7724 C.3     1  UNL1        0.0442
      6 C          61.1076   92.4137    2.6135 C.3     1  UNL1        0.0933
      7 C          61.7706   91.4598    3.5624 C.3     1  UNL1        0.0442
      8 C          60.9782   90.8315    4.6702 C.3     1  UNL1        0.0953
      9 N          61.9001   93.0420    1.5057 N.ar    1  UNL1       -0.2814
     10 C          61.6879   92.8246    0.0368 C.ar    1  UNL1        0.3365
     11 O          60.6461   91.9407   -0.5823 O.2     1  UNL1       -0.2459
     12 N          62.7006   93.6464   -0.7043 N.ar    1  UNL1       -0.2420
     13 C          63.5385   94.3717    0.3066 C.ar    1  UNL1        0.0877
     14 C          64.6881   95.3239    0.1597 C.ar    1  UNL1        0.0488
     15 C          65.3430   95.9026    1.3788 C.ar    1  UNL1        0.1417
     16 F          66.4926   96.8550    1.2320 F       1  UNL1       -0.2041
     17 C          64.8482   95.5291    2.7447 C.ar    1  UNL1        0.0312
     18 C          63.6986   94.5769    2.8916 C.ar    1  UNL1        0.0211
     19 C          63.0438   93.9981    1.6725 C.ar    1  UNL1        0.0801
     20 C          62.8492   93.7285   -2.1947 C.ar    1  UNL1        0.1705
     21 C          62.0365   94.7180   -2.9761 C.ar    1  UNL1        0.1363
     22 N          62.1851   94.8001   -4.4664 N.ar    1  UNL1       -0.2375
     23 C          63.1464   93.8927   -5.1754 C.ar    1  UNL1        0.1196
     24 C          63.9591   92.9033   -4.3940 C.ar    1  UNL1        0.1212
     25 N          63.8104   92.8212   -2.9037 N.ar    1  UNL1       -0.2231
     26 N          60.7195   87.6670    8.7835 N.3     1  UNL1       -0.2689
     27 C          60.7987   89.1449    9.0281 C.3     1  UNL1        0.0729
     28 C          60.1356   90.0987    8.0792 C.3     1  UNL1        0.0264
     29 C          59.3932   89.5747    6.8857 C.3     1  UNL1        0.0795
     30 C          59.3140   88.0969    6.6411 C.3     1  UNL1        0.0264
     31 C          59.9771   87.1431    7.5900 C.3     1  UNL1        0.0729
     32 C          61.3826   86.7132    9.7324 C.3     1  UNL1        0.0993
     33 N          63.9679   85.8641   14.1591 N.pl3   1  UNL1       -0.3426
     34 C          63.4399   86.8134   13.1246 C.ar    1  UNL1        0.1251
     35 C          62.6752   86.2886   11.9457 C.ar    1  UNL1        0.0310
     36 C          62.1473   87.2380   10.9113 C.ar    1  UNL1       -0.0018
     37 C          62.3840   88.7121   11.0558 C.ar    1  UNL1        0.0179
     38 C          63.1486   89.2369   12.2347 C.ar    1  UNL1        0.1000
     39 N          63.6766   88.2875   13.2691 N.ar    1  UNL1       -0.2296
     40 H          63.8125   84.8965   14.0643 H       1  UNL1        0.1437
     41 H          64.4697   86.2086   14.9328 H       1  UNL1        0.1437
@<TRIPOS>BOND
     1    33    34    1
     2    34    35   ar
     3    35    36   ar
     4    36    32    1
     5    32    26    1
     6    26    27    1
     7    27    28    1
     8    28    29    1
     9    29     1    1
    10     1     2    2
    11     1     3   am
    12     3     4    1
    13     4     5    1
    14     5     6    1
    15     6     9    1
    16     9    10   ar
    17    10    11    2
    18    10    12   ar
    19    12    20    1
    20    20    21   ar
    21    21    22   ar
    22    22    23   ar
    23    23    24   ar
    24    24    25   ar
    25    12    13   ar
    26    13    14   ar
    27    14    15   ar
    28    15    16    1
    29    15    17   ar
    30    17    18   ar
    31    18    19   ar
    32     6     7    1
    33     7     8    1
    34    29    30    1
    35    30    31    1
    36    36    37   ar
    37    37    38   ar
    38    38    39   ar
    39    39    34   ar
    40    31    26    1
    41     8     3    1
    42    19     9   ar
    43    25    20   ar
    44    19    13   ar
    45    33    40    1
    46    33    41    1
