@<TRIPOS>MOLECULE
*****
 43 47 0 0 0
SMALL
GASTEIGER

@<TRIPOS>ATOM
      1 C          64.2270   89.7329   13.7101 C.2     1  UNL1        0.3851
      2 N          65.4293   90.4675   14.2246 N.am    1  UNL1        0.0007
      3 N          63.0225   90.4973   13.2466 N.pl3   1  UNL1       -0.2438
      4 H          62.7932   91.3572   13.6677 H       1  UNL1        0.2647
      5 C          60.3810   85.8148    7.5265 C.3     1  UNL1        0.0725
      6 C          60.6546   86.8696    8.5573 C.ar    1  UNL1        0.1233
      7 C          61.8155   86.8944    9.5068 C.ar    1  UNL1        0.0361
      8 C          61.6937   88.1249   10.3560 C.ar    1  UNL1        0.0400
      9 C          62.5487   88.6704   11.4611 C.ar    1  UNL1        0.0365
     10 C          62.1675   89.9517   12.1414 C.ar    1  UNL1        0.1168
     11 C          60.9312   90.6874   11.7167 C.ar    1  UNL1        0.0365
     12 C          60.0762   90.1419   10.6116 C.ar    1  UNL1        0.0404
     13 C          60.4574   88.8606    9.9313 C.ar    1  UNL1        0.1450
     14 O          59.8152   88.0848    8.8196 O.2     1  UNL1       -0.4577
     15 C          65.4271   91.9667   14.2756 C.2     1  UNL1        0.3433
     16 O          65.1122   92.6729   15.5609 O.2     1  UNL1       -0.2483
     17 C          65.7399   92.7595   13.0413 C.ar    1  UNL1        0.0919
     18 C          65.4204   92.1975   11.6878 C.ar    1  UNL1        0.0093
     19 C          65.7332   92.9904   10.4536 C.ar    1  UNL1        0.0205
     20 CA         66.3656   94.3454   10.5728 C.ar    1  UNL1        0.0952
     21 N          66.6851   94.9074   11.9263 N.ar    1  UNL1       -0.2425
     22 C          66.3723   94.1145   13.1606 C.ar    1  UNL1        0.1049
     23 C          66.6784   95.1382    9.3385 C.2     1  UNL1        0.0905
     24 O          67.5181   94.5345    8.2521 O.co2   1  UNL1       -0.5430
     25 OXT        66.1514   96.5348    9.1906 O.co2   1  UNL1       -0.5430
     26 N          64.2291   88.2337   13.6591 N.pl3   1  UNL1       -0.2585
     27 H          64.5043   87.7695   12.8356 H       1  UNL1        0.2589
     28 C          63.8120   87.4417   14.8627 C.3     1  UNL1        0.2142
     29 C          63.3071   88.2430   16.0260 C.3     1  UNL1        0.0490
     30 C          62.8204   87.7536   17.3578 C.3     1  UNL1        0.0057
     31 C          62.7184   86.3421   17.8553 C.3     1  UNL1        0.0216
     32 C          63.0779   85.0715   17.1438 C.3     1  UNL1        0.0940
     33 N          63.6282   84.8985   15.7591 N.am    1  UNL1       -0.2686
     34 C          63.9548   85.9533   14.7440 C.2     1  UNL1        0.2622
     35 O          64.4960   85.4536   13.4373 O.2     1  UNL1       -0.2712
     36 C          63.8858   83.4834   15.3334 C.3     1  UNL1        0.1794
     37 C          62.9069   82.7785   14.4419 C.2     1  UNL1        0.2459
     38 O          61.5670   82.3673   14.9763 O.2     1  UNL1       -0.2730
     39 N          63.2679   82.4848   13.0159 N.am    1  UNL1       -0.2781
     40 C          64.5631   82.8335   12.3445 C.3     1  UNL1        0.0935
     41 C          64.4927   82.3550   10.9246 C.3     1  UNL1        0.0233
     42 C          63.1540   81.7106   10.7184 C.3     1  UNL1        0.0233
     43 C          62.3970   81.7908   12.0109 C.3     1  UNL1        0.0935
@<TRIPOS>UNITY_ATOM_ATTR
24 1
charge -1
@<TRIPOS>BOND
     1     5     6    1
     2     6     7   ar
     3     7     8   ar
     4     8     9   ar
     5     9    10   ar
     6    10     3    1
     7     3     1    1
     8     1     2    2
     9     2    15    1
    10    15    16    2
    11    15    17    1
    12    17    18   ar
    13    18    19   ar
    14    19    20   ar
    15    20    23    1
    16    23    24   ar
    17    23    25   ar
    18    20    21   ar
    19    21    22   ar
    20     1    26    1
    21    28    26    1
    22    28    29    1
    23    29    30    1
    24    30    31    1
    25    31    32    1
    26    32    33    1
    27    33    36    1
    28    36    37    1
    29    37    38    2
    30    37    39   am
    31    39    40    1
    32    40    41    1
    33    41    42    1
    34    42    43    1
    35    33    34   am
    36    34    35    2
    37    10    11   ar
    38    11    12   ar
    39    12    13   ar
    40    13    14   ar
    41    14     6   ar
    42    13     8   ar
    43    22    17   ar
    44    34    28    1
    45    43    39    1
    46     3     4    1
    47    26    27    1
@<TRIPOS>MOLECULE
*****
 43 47 0 0 0
SMALL
GASTEIGER

@<TRIPOS>ATOM
      1 C          62.8160   89.9894   13.1488 C.2     1  UNL1        0.3851
      2 N          61.3530   89.6650   13.0833 N.am    1  UNL1        0.0007
      3 N          63.5555   90.3738   11.9016 N.pl3   1  UNL1       -0.2438
      4 H          63.4588   89.8322   11.0852 H       1  UNL1        0.2647
      5 C          67.3725   96.7732    9.4315 C.3     1  UNL1        0.0725
      6 C          66.7724   95.6043   10.1551 C.ar    1  UNL1        0.1233
      7 C          65.8256   94.5978    9.5717 C.ar    1  UNL1        0.0361
      8 C          65.4818   93.6081   10.6451 C.ar    1  UNL1        0.0400
      9 C          64.5949   92.3984   10.6483 C.ar    1  UNL1        0.0365
     10 C          64.4424   91.5836   11.8984 C.ar    1  UNL1        0.1168
     11 C          65.1768   91.9785   13.1453 C.ar    1  UNL1        0.0365
     12 C          66.0637   93.1882   13.1421 C.ar    1  UNL1        0.0404
     13 C          66.2161   94.0030   11.8920 C.ar    1  UNL1        0.1450
     14 O          67.0138   95.2367   11.5891 O.2     1  UNL1       -0.4577
     15 C          60.6294   89.7250   11.7707 C.2     1  UNL1        0.3433
     16 O          59.6918   90.8598   11.4824 O.2     1  UNL1       -0.2483
     17 C          60.8435   88.6503   10.7464 C.ar    1  UNL1        0.0919
     18 C          61.6249   87.4202   11.1020 C.ar    1  UNL1        0.0093
     19 C          61.8389   86.3455   10.0778 C.ar    1  UNL1        0.0205
     20 CA         61.2716   86.5008    8.6979 C.ar    1  UNL1        0.0952
     21 N          60.4902   87.7309    8.3423 N.ar    1  UNL1       -0.2425
     22 C          60.2762   88.8056    9.3666 C.ar    1  UNL1        0.1049
     23 C          61.4857   85.4261    7.6736 C.2     1  UNL1        0.0905
     24 O          62.8326   84.7812    7.5336 O.co2   1  UNL1       -0.5430
     25 OXT        60.3528   84.9964    6.7894 O.co2   1  UNL1       -0.5430
     26 N          63.5396   89.9293   14.4614 N.pl3   1  UNL1       -0.2585
     27 H          64.0676   90.7015   14.7682 H       1  UNL1        0.2589
     28 C          63.4587   88.6927   15.3065 C.3     1  UNL1        0.2142
     29 C          63.0010   88.8992   16.7200 C.3     1  UNL1        0.0490
     30 C          62.8177   87.8771   17.8024 C.3     1  UNL1        0.0057
     31 C          63.0469   86.3960   17.7387 C.3     1  UNL1        0.0216
     32 C          63.5159   85.5713   16.5769 C.3     1  UNL1        0.0940
     33 N          63.8716   86.0240   15.1917 N.am    1  UNL1       -0.2686
     34 C          63.8461   87.4132   14.6264 C.2     1  UNL1        0.2622
     35 O          64.2633   87.5394   13.1911 O.2     1  UNL1       -0.2712
     36 C          64.3109   84.9448   14.2471 C.3     1  UNL1        0.1794
     37 C          63.3994   83.7910   13.9505 C.2     1  UNL1        0.2459
     38 O          62.4034   83.3390   14.9769 O.2     1  UNL1       -0.2730
     39 N          63.4841   83.0892   12.6275 N.am    1  UNL1       -0.2781
     40 C          64.4248   83.4268   11.5089 C.3     1  UNL1        0.0935
     41 C          64.1649   82.4728   10.3810 C.3     1  UNL1        0.0233
     42 C          63.0636   81.5457   10.8023 C.3     1  UNL1        0.0233
     43 C          62.6428   81.9267   12.1908 C.3     1  UNL1        0.0935
@<TRIPOS>UNITY_ATOM_ATTR
24 1
charge -1
@<TRIPOS>BOND
     1     5     6    1
     2     6     7   ar
     3     7     8   ar
     4     8     9   ar
     5     9    10   ar
     6    10     3    1
     7     3     1    1
     8     1     2    2
     9     2    15    1
    10    15    16    2
    11    15    17    1
    12    17    18   ar
    13    18    19   ar
    14    19    20   ar
    15    20    23    1
    16    23    24   ar
    17    23    25   ar
    18    20    21   ar
    19    21    22   ar
    20     1    26    1
    21    28    26    1
    22    28    29    1
    23    29    30    1
    24    30    31    1
    25    31    32    1
    26    32    33    1
    27    33    36    1
    28    36    37    1
    29    37    38    2
    30    37    39   am
    31    39    40    1
    32    40    41    1
    33    41    42    1
    34    42    43    1
    35    33    34   am
    36    34    35    2
    37    10    11   ar
    38    11    12   ar
    39    12    13   ar
    40    13    14   ar
    41    14     6   ar
    42    13     8   ar
    43    22    17   ar
    44    34    28    1
    45    43    39    1
    46     3     4    1
    47    26    27    1
@<TRIPOS>MOLECULE
*****
 43 47 0 0 0
SMALL
GASTEIGER

@<TRIPOS>ATOM
      1 C          63.3171   88.7496   12.6440 C.2     1  UNL1        0.3851
      2 N          62.3896   87.6714   12.1674 N.am    1  UNL1        0.0007
      3 N          63.3075   90.0947   11.9802 N.pl3   1  UNL1       -0.2438
      4 H          62.6372   90.2973   11.2882 H       1  UNL1        0.2647
      5 C          68.6964   94.0145   16.1297 C.3     1  UNL1        0.0725
      6 C          67.7079   93.4720   15.1404 C.ar    1  UNL1        0.1233
      7 C          66.8750   92.2365   15.3132 C.ar    1  UNL1        0.0361
      8 C          66.0312   92.0706   14.0842 C.ar    1  UNL1        0.0400
      9 C          65.0195   91.0343   13.6937 C.ar    1  UNL1        0.0365
     10 C          64.3192   91.1310   12.3708 C.ar    1  UNL1        0.1168
     11 C          64.6306   92.2640   11.4383 C.ar    1  UNL1        0.0365
     12 C          65.6423   93.3003   11.8288 C.ar    1  UNL1        0.0404
     13 C          66.3426   93.2036   13.1518 C.ar    1  UNL1        0.1450
     14 O          67.3789   94.0697   13.8045 O.2     1  UNL1       -0.4577
     15 C          61.4524   87.9383   11.0270 C.2     1  UNL1        0.3433
     16 O          60.4648   89.0638   11.1155 O.2     1  UNL1       -0.2483
     17 C          61.5028   87.0797    9.7981 C.ar    1  UNL1        0.0919
     18 C          62.7139   86.2397    9.5192 C.ar    1  UNL1        0.0093
     19 C          62.7643   85.3811    8.2903 C.ar    1  UNL1        0.0205
     20 CA         61.6036   85.3624    7.3403 C.ar    1  UNL1        0.0952
     21 N          60.3925   86.2023    7.6192 N.ar    1  UNL1       -0.2425
     22 C          60.3421   87.0610    8.8481 C.ar    1  UNL1        0.1049
     23 C          61.6540   84.5037    6.1114 C.2     1  UNL1        0.0905
     24 O          60.4981   83.6095    5.7734 O.co2   1  UNL1       -0.5430
     25 OXT        62.8603   84.5393    5.2206 O.co2   1  UNL1       -0.5430
     26 N          64.2543   88.4827   13.7844 N.pl3   1  UNL1       -0.2585
     27 H          65.1586   88.8719   13.7798 H       1  UNL1        0.2589
     28 C          63.8136   87.6228   14.9318 C.3     1  UNL1        0.2142
     29 C          63.2354   88.3529   16.1077 C.3     1  UNL1        0.0490
     30 C          62.7102   87.7870   17.3937 C.3     1  UNL1        0.0057
     31 C          62.6335   86.3513   17.8216 C.3     1  UNL1        0.0216
     32 C          63.0631   85.1269   17.0690 C.3     1  UNL1        0.0940
     33 N          63.6754   85.0359   15.7027 N.am    1  UNL1       -0.2686
     34 C          64.0095   86.1467   14.7515 C.2     1  UNL1        0.2622
     35 O          64.6201   85.7255   13.4478 O.2     1  UNL1       -0.2712
     36 C          63.9962   83.6509   15.2243 C.3     1  UNL1        0.1794
     37 C          63.0206   82.9125   14.3566 C.2     1  UNL1        0.2459
     38 O          61.7107   82.4524   14.9243 O.2     1  UNL1       -0.2730
     39 N          63.3550   82.6341   12.9211 N.am    1  UNL1       -0.2781
     40 C          64.6191   83.0302   12.2173 C.3     1  UNL1        0.0935
     41 C          64.5293   82.5516   10.7986 C.3     1  UNL1        0.0233
     42 C          63.2098   81.8597   10.6254 C.3     1  UNL1        0.0233
     43 C          62.4840   81.9107   11.9372 C.3     1  UNL1        0.0935
@<TRIPOS>UNITY_ATOM_ATTR
24 1
charge -1
@<TRIPOS>BOND
     1     5     6    1
     2     6     7   ar
     3     7     8   ar
     4     8     9   ar
     5     9    10   ar
     6    10     3    1
     7     3     1    1
     8     1     2    2
     9     2    15    1
    10    15    16    2
    11    15    17    1
    12    17    18   ar
    13    18    19   ar
    14    19    20   ar
    15    20    23    1
    16    23    24   ar
    17    23    25   ar
    18    20    21   ar
    19    21    22   ar
    20     1    26    1
    21    28    26    1
    22    28    29    1
    23    29    30    1
    24    30    31    1
    25    31    32    1
    26    32    33    1
    27    33    36    1
    28    36    37    1
    29    37    38    2
    30    37    39   am
    31    39    40    1
    32    40    41    1
    33    41    42    1
    34    42    43    1
    35    33    34   am
    36    34    35    2
    37    10    11   ar
    38    11    12   ar
    39    12    13   ar
    40    13    14   ar
    41    14     6   ar
    42    13     8   ar
    43    22    17   ar
    44    34    28    1
    45    43    39    1
    46     3     4    1
    47    26    27    1
@<TRIPOS>MOLECULE
*****
 43 47 0 0 0
SMALL
GASTEIGER

@<TRIPOS>ATOM
      1 C          63.8377   89.3168   13.3363 C.2     1  UNL1        0.3851
      2 N          64.5612   88.4339   14.3094 N.am    1  UNL1        0.0007
      3 N          62.3502   89.2012   13.1812 N.pl3   1  UNL1       -0.2438
      4 H          61.7565   89.4584   13.9232 H       1  UNL1        0.2647
      5 C          61.3350   84.9574    6.6557 C.3     1  UNL1        0.0725
      6 C          61.2908   85.9057    7.8171 C.ar    1  UNL1        0.1233
      7 C          62.2698   85.9555    8.9524 C.ar    1  UNL1        0.0361
      8 C          61.8439   87.0512    9.8841 C.ar    1  UNL1        0.0400
      9 C          62.4268   87.5587   11.1696 C.ar    1  UNL1        0.0365
     10 C          61.7674   88.6936   11.8956 C.ar    1  UNL1        0.1168
     11 C          60.5251   89.3210   11.3361 C.ar    1  UNL1        0.0365
     12 C          59.9422   88.8135   10.0506 C.ar    1  UNL1        0.0404
     13 C          60.6016   87.6786    9.3246 C.ar    1  UNL1        0.1450
     14 O          60.2598   86.9706    8.0471 O.2     1  UNL1       -0.4577
     15 C          63.7972   87.4353   15.1275 C.2     1  UNL1        0.3433
     16 O          63.0846   87.8739   16.3724 O.2     1  UNL1       -0.2483
     17 C          63.7459   85.9982   14.7007 C.ar    1  UNL1        0.0919
     18 C          63.5088   85.6515   13.2608 C.ar    1  UNL1        0.0093
     19 C          63.4575   84.2145   12.8340 C.ar    1  UNL1        0.0205
     20 CA         63.6433   83.1240   13.8472 C.ar    1  UNL1        0.0952
     21 N          63.8804   83.4708   15.2872 N.ar    1  UNL1       -0.2425
     22 C          63.9317   84.9079   15.7139 C.ar    1  UNL1        0.1049
     23 C          63.5920   81.6870   13.4204 C.2     1  UNL1        0.0905
     24 O          63.1798   81.3342   12.0220 O.co2   1  UNL1       -0.5430
     25 OXT        63.9529   80.6027   14.3920 O.co2   1  UNL1       -0.5430
     26 N          64.6017   90.3153   12.5182 N.pl3   1  UNL1       -0.2585
     27 H          64.6080   90.2455   11.5362 H       1  UNL1        0.2589
     28 C          65.3561   91.4204   13.1963 C.3     1  UNL1        0.2142
     29 C          65.8320   91.1250   14.5878 C.3     1  UNL1        0.0490
     30 C          66.6042   92.0109   15.5199 C.3     1  UNL1        0.0057
     31 C          67.0912   93.4111   15.2907 C.3     1  UNL1        0.0216
     32 C          66.9263   94.2711   14.0728 C.3     1  UNL1        0.0940
     33 N          66.2336   93.9432   12.7833 N.am    1  UNL1       -0.2686
     34 C          65.5349   92.6746   12.3932 C.2     1  UNL1        0.2622
     35 O          64.9356   92.6580   11.0182 O.2     1  UNL1       -0.2712
     36 C          66.2408   95.0275   11.7468 C.3     1  UNL1        0.1794
     37 C          66.8954   94.7907   10.4182 C.2     1  UNL1        0.2459
     38 O          68.0767   93.8719   10.3173 O.2     1  UNL1       -0.2730
     39 N          66.3687   95.4727    9.1904 N.am    1  UNL1       -0.2781
     40 C          65.2015   96.4133    9.1364 C.3     1  UNL1        0.0935
     41 C          65.0281   96.8557    7.7137 C.3     1  UNL1        0.0233
     42 C          66.0881   96.1885    6.8884 C.3     1  UNL1        0.0233
     43 C          66.9166   95.3337    7.8010 C.3     1  UNL1        0.0935
@<TRIPOS>UNITY_ATOM_ATTR
24 1
charge -1
@<TRIPOS>BOND
     1     5     6    1
     2     6     7   ar
     3     7     8   ar
     4     8     9   ar
     5     9    10   ar
     6    10     3    1
     7     3     1    1
     8     1     2    2
     9     2    15    1
    10    15    16    2
    11    15    17    1
    12    17    18   ar
    13    18    19   ar
    14    19    20   ar
    15    20    23    1
    16    23    24   ar
    17    23    25   ar
    18    20    21   ar
    19    21    22   ar
    20     1    26    1
    21    28    26    1
    22    28    29    1
    23    29    30    1
    24    30    31    1
    25    31    32    1
    26    32    33    1
    27    33    36    1
    28    36    37    1
    29    37    38    2
    30    37    39   am
    31    39    40    1
    32    40    41    1
    33    41    42    1
    34    42    43    1
    35    33    34   am
    36    34    35    2
    37    10    11   ar
    38    11    12   ar
    39    12    13   ar
    40    13    14   ar
    41    14     6   ar
    42    13     8   ar
    43    22    17   ar
    44    34    28    1
    45    43    39    1
    46     3     4    1
    47    26    27    1
@<TRIPOS>MOLECULE
*****
 43 47 0 0 0
SMALL
GASTEIGER

@<TRIPOS>ATOM
      1 C          63.5407   87.3534   13.4456 C.2     1  UNL1        0.3851
      2 N          64.6840   87.1336   14.3914 N.am    1  UNL1        0.0007
      3 N          62.9569   86.1948   12.6927 N.pl3   1  UNL1       -0.2438
      4 H          62.9650   85.2946   13.0910 H       1  UNL1        0.2647
      5 C          59.0298   89.4773    6.7407 C.3     1  UNL1        0.0725
      6 C          59.8330   88.6385    7.6900 C.ar    1  UNL1        0.1233
      7 C          60.1443   88.9760    9.1180 C.ar    1  UNL1        0.0361
      8 C          60.9696   87.8609    9.6886 C.ar    1  UNL1        0.0400
      9 C          61.5657   87.6478   11.0484 C.ar    1  UNL1        0.0365
     10 C          62.3606   86.4080   11.3328 C.ar    1  UNL1        0.1168
     11 C          62.5593   85.3813   10.2575 C.ar    1  UNL1        0.0365
     12 C          61.9632   85.5944    8.8977 C.ar    1  UNL1        0.0404
     13 C          61.1683   86.8342    8.6132 C.ar    1  UNL1        0.1450
     14 O          60.4658   87.3148    7.3781 O.2     1  UNL1       -0.4577
     15 C          65.2435   85.7553   14.5843 C.2     1  UNL1        0.3433
     16 O          66.6883   85.5761   14.9452 O.2     1  UNL1       -0.2483
     17 C          64.3581   84.5562   14.4164 C.ar    1  UNL1        0.0919
     18 C          64.5437   83.6459   13.2387 C.ar    1  UNL1        0.0093
     19 C          63.6583   82.4468   13.0707 C.ar    1  UNL1        0.0205
     20 CA         62.5873   82.1579   14.0805 C.ar    1  UNL1        0.0952
     21 N          62.4017   83.0682   15.2582 N.ar    1  UNL1       -0.2425
     22 C          63.2872   84.2673   15.4261 C.ar    1  UNL1        0.1049
     23 C          61.7020   80.9588   13.9125 C.2     1  UNL1        0.0905
     24 O          62.2514   79.6992   13.3114 O.co2   1  UNL1       -0.5430
     25 OXT        60.2672   81.0193   14.3457 O.co2   1  UNL1       -0.5430
     26 N          62.9812   88.7318   13.2527 N.pl3   1  UNL1       -0.2585
     27 H          62.0392   88.8485   12.9913 H       1  UNL1        0.2589
     28 C          63.8569   89.9322   13.4581 C.3     1  UNL1        0.2142
     29 C          64.3571   90.1412   14.8567 C.3     1  UNL1        0.0490
     30 C          65.2405   91.2345   15.3804 C.3     1  UNL1        0.0057
     31 C          65.8420   92.3888   14.6348 C.3     1  UNL1        0.0216
     32 C          65.7085   92.7349   13.1813 C.3     1  UNL1        0.0940
     33 N          64.9407   92.0121   12.1146 N.am    1  UNL1       -0.2686
     34 C          64.1166   90.7647   12.2378 C.2     1  UNL1        0.2622
     35 O          63.4663   90.2869   10.9733 O.2     1  UNL1       -0.2712
     36 C          65.0054   92.6166   10.7433 C.3     1  UNL1        0.1794
     37 C          66.3197   93.0819   10.1902 C.2     1  UNL1        0.2459
     38 O          67.4622   92.1187   10.0606 O.2     1  UNL1       -0.2730
     39 N          66.4915   94.5106    9.7666 N.am    1  UNL1       -0.2781
     40 C          65.4450   95.5829    9.8365 C.3     1  UNL1        0.0935
     41 C          66.0468   96.8528    9.3119 C.3     1  UNL1        0.0233
     42 C          67.4652   96.5653    8.9177 C.3     1  UNL1        0.0233
     43 C          67.7401   95.1178    9.1988 C.3     1  UNL1        0.0935
@<TRIPOS>UNITY_ATOM_ATTR
24 1
charge -1
@<TRIPOS>BOND
     1     5     6    1
     2     6     7   ar
     3     7     8   ar
     4     8     9   ar
     5     9    10   ar
     6    10     3    1
     7     3     1    1
     8     1     2    2
     9     2    15    1
    10    15    16    2
    11    15    17    1
    12    17    18   ar
    13    18    19   ar
    14    19    20   ar
    15    20    23    1
    16    23    24   ar
    17    23    25   ar
    18    20    21   ar
    19    21    22   ar
    20     1    26    1
    21    28    26    1
    22    28    29    1
    23    29    30    1
    24    30    31    1
    25    31    32    1
    26    32    33    1
    27    33    36    1
    28    36    37    1
    29    37    38    2
    30    37    39   am
    31    39    40    1
    32    40    41    1
    33    41    42    1
    34    42    43    1
    35    33    34   am
    36    34    35    2
    37    10    11   ar
    38    11    12   ar
    39    12    13   ar
    40    13    14   ar
    41    14     6   ar
    42    13     8   ar
    43    22    17   ar
    44    34    28    1
    45    43    39    1
    46     3     4    1
    47    26    27    1
@<TRIPOS>MOLECULE
*****
 43 47 0 0 0
SMALL
GASTEIGER

@<TRIPOS>ATOM
      1 C          63.4345   88.9070   14.7651 C.2     1  UNL1        0.3851
      2 N          63.1489   88.6409   16.2133 N.am    1  UNL1        0.0007
      3 N          63.8070   87.7752   13.8538 N.pl3   1  UNL1       -0.2438
      4 H          64.5523   87.1772   14.0910 H       1  UNL1        0.2647
      5 C          59.5755   89.1912    7.3953 C.3     1  UNL1        0.0725
      6 C          60.3702   88.6458    8.5447 C.ar    1  UNL1        0.1233
      7 C          60.9580   89.4463    9.6688 C.ar    1  UNL1        0.0361
      8 C          61.6677   88.4994   10.5906 C.ar    1  UNL1        0.0400
      9 C          62.4305   88.7199   11.8631 C.ar    1  UNL1        0.0365
     10 C          63.0442   87.5547   12.5812 C.ar    1  UNL1        0.1168
     11 C          62.8950   86.1690   12.0267 C.ar    1  UNL1        0.0365
     12 C          62.1322   85.9484   10.7542 C.ar    1  UNL1        0.0404
     13 C          61.5186   87.1136   10.0361 C.ar    1  UNL1        0.1450
     14 O          60.7166   87.2041    8.7717 O.2     1  UNL1       -0.4577
     15 C          63.2359   87.2430   16.7505 C.2     1  UNL1        0.3433
     16 O          63.0615   86.9916   18.2189 O.2     1  UNL1       -0.2483
     17 C          63.4972   86.0966   15.8191 C.ar    1  UNL1        0.0919
     18 C          62.3987   85.1278   15.4954 C.ar    1  UNL1        0.0093
     19 C          62.6601   83.9815   14.5640 C.ar    1  UNL1        0.0205
     20 CA         64.0200   83.8037   13.9564 C.ar    1  UNL1        0.0952
     21 N          65.1185   84.7725   14.2802 N.ar    1  UNL1       -0.2425
     22 C          64.8571   85.9189   15.2116 C.ar    1  UNL1        0.1049
     23 C          64.2814   82.6573   13.0251 C.2     1  UNL1        0.0905
     24 O          64.8030   82.9178   11.6431 O.co2   1  UNL1       -0.5430
     25 OXT        64.0211   81.2505   13.4758 O.co2   1  UNL1       -0.5430
     26 N          63.3475   90.3048   14.2279 N.pl3   1  UNL1       -0.2585
     27 H          62.5418   90.5967   13.7432 H       1  UNL1        0.2589
     28 C          64.4880   91.2580   14.4294 C.3     1  UNL1        0.2142
     29 C          64.9618   91.4162   15.8438 C.3     1  UNL1        0.0490
     30 C          66.0686   92.2824   16.3680 C.3     1  UNL1        0.0057
     31 C          66.9749   93.2045   15.6073 C.3     1  UNL1        0.0216
     32 C          66.9981   93.4879   14.1345 C.3     1  UNL1        0.0940
     33 N          66.1209   92.9194   13.0587 N.am    1  UNL1       -0.2686
     34 C          65.0038   91.9270   13.1900 C.2     1  UNL1        0.2622
     35 O          64.3109   91.5544   11.9128 O.2     1  UNL1       -0.2712
     36 C          66.3974   93.4079   11.6677 C.3     1  UNL1        0.1794
     37 C          66.3855   94.8786   11.3731 C.2     1  UNL1        0.2459
     38 O          66.0308   95.8570   12.4532 O.2     1  UNL1       -0.2730
     39 N          66.7285   95.3709    9.9983 N.am    1  UNL1       -0.2781
     40 C          67.1013   94.5163    8.8232 C.3     1  UNL1        0.0935
     41 C          67.3620   95.4215    7.6560 C.3     1  UNL1        0.0233
     42 C          67.1503   96.8355    8.1095 C.3     1  UNL1        0.0233
     43 C          66.7587   96.8042    9.5571 C.3     1  UNL1        0.0935
@<TRIPOS>UNITY_ATOM_ATTR
24 1
charge -1
@<TRIPOS>BOND
     1     5     6    1
     2     6     7   ar
     3     7     8   ar
     4     8     9   ar
     5     9    10   ar
     6    10     3    1
     7     3     1    1
     8     1     2    2
     9     2    15    1
    10    15    16    2
    11    15    17    1
    12    17    18   ar
    13    18    19   ar
    14    19    20   ar
    15    20    23    1
    16    23    24   ar
    17    23    25   ar
    18    20    21   ar
    19    21    22   ar
    20     1    26    1
    21    28    26    1
    22    28    29    1
    23    29    30    1
    24    30    31    1
    25    31    32    1
    26    32    33    1
    27    33    36    1
    28    36    37    1
    29    37    38    2
    30    37    39   am
    31    39    40    1
    32    40    41    1
    33    41    42    1
    34    42    43    1
    35    33    34   am
    36    34    35    2
    37    10    11   ar
    38    11    12   ar
    39    12    13   ar
    40    13    14   ar
    41    14     6   ar
    42    13     8   ar
    43    22    17   ar
    44    34    28    1
    45    43    39    1
    46     3     4    1
    47    26    27    1
@<TRIPOS>MOLECULE
*****
 43 47 0 0 0
SMALL
GASTEIGER

@<TRIPOS>ATOM
      1 C          61.5212   88.1499   11.8832 C.2     1  UNL1        0.3851
      2 N          62.7757   87.3636   11.6426 N.am    1  UNL1        0.0007
      3 N          60.2162   87.6711   11.3196 N.pl3   1  UNL1       -0.2438
      4 H          59.5827   87.1813   11.8923 H       1  UNL1        0.2647
      5 C          59.3158   91.4116    4.4770 C.3     1  UNL1        0.0725
      6 C          59.3806   90.4702    5.6430 C.ar    1  UNL1        0.1233
      7 C          59.8777   90.8031    7.0185 C.ar    1  UNL1        0.0361
      8 C          59.7640   89.5692    7.8638 C.ar    1  UNL1        0.0400
      9 C          60.1039   89.3017    9.3001 C.ar    1  UNL1        0.0365
     10 C          59.8763   87.9387    9.8833 C.ar    1  UNL1        0.1168
     11 C          59.3089   86.8431    9.0302 C.ar    1  UNL1        0.0365
     12 C          58.9690   87.1106    7.5939 C.ar    1  UNL1        0.0404
     13 C          59.1966   88.4737    7.0107 C.ar    1  UNL1        0.1450
     14 O          58.9596   89.0305    5.6382 O.2     1  UNL1       -0.4577
     15 C          62.7251   86.0984   10.8383 C.2     1  UNL1        0.3433
     16 O          62.5977   86.1635    9.3451 O.2     1  UNL1       -0.2483
     17 C          62.8021   84.7682   11.5271 C.ar    1  UNL1        0.0919
     18 C          63.1469   83.5365   10.7434 C.ar    1  UNL1        0.0093
     19 C          63.2239   82.2063   11.4322 C.ar    1  UNL1        0.0205
     20 CA         62.9560   82.1077   12.9049 C.ar    1  UNL1        0.0952
     21 N          62.6112   83.3393   13.6886 N.ar    1  UNL1       -0.2425
     22 C          62.5343   84.6696   12.9997 C.ar    1  UNL1        0.1049
     23 C          63.0330   80.7774   13.5937 C.2     1  UNL1        0.0905
     24 O          64.1971   80.4607   14.4851 O.co2   1  UNL1       -0.5430
     25 OXT        61.9459   79.7639   13.3912 O.co2   1  UNL1       -0.5430
     26 N          61.5717   89.4151   12.6876 N.pl3   1  UNL1       -0.2585
     27 H          60.7407   89.8073   13.0408 H       1  UNL1        0.2589
     28 C          62.8884   90.0826   12.9536 C.3     1  UNL1        0.2142
     29 C          63.5500   89.7229   14.2509 C.3     1  UNL1        0.0490
     30 C          64.8560   90.2134   14.8021 C.3     1  UNL1        0.0057
     31 C          65.8229   91.1846   14.1922 C.3     1  UNL1        0.0216
     32 C          65.7226   91.9052   12.8805 C.3     1  UNL1        0.0940
     33 N          64.6307   91.8325   11.8546 N.am    1  UNL1       -0.2686
     34 C          63.3693   91.0214   11.8872 C.2     1  UNL1        0.2622
     35 O          62.4700   91.1686   10.6957 O.2     1  UNL1       -0.2712
     36 C          64.8259   92.6836   10.6350 C.3     1  UNL1        0.1794
     37 C          66.2089   93.0806   10.2111 C.2     1  UNL1        0.2459
     38 O          67.3100   92.0622   10.1957 O.2     1  UNL1       -0.2730
     39 N          66.4907   94.4961    9.8025 N.am    1  UNL1       -0.2781
     40 C          65.4960   95.6184    9.7675 C.3     1  UNL1        0.0935
     41 C          66.2072   96.8537    9.3006 C.3     1  UNL1        0.0233
     42 C          67.6415   96.4950    9.0470 C.3     1  UNL1        0.0233
     43 C          67.8166   95.0379    9.3572 C.3     1  UNL1        0.0935
@<TRIPOS>UNITY_ATOM_ATTR
24 1
charge -1
@<TRIPOS>BOND
     1     5     6    1
     2     6     7   ar
     3     7     8   ar
     4     8     9   ar
     5     9    10   ar
     6    10     3    1
     7     3     1    1
     8     1     2    2
     9     2    15    1
    10    15    16    2
    11    15    17    1
    12    17    18   ar
    13    18    19   ar
    14    19    20   ar
    15    20    23    1
    16    23    24   ar
    17    23    25   ar
    18    20    21   ar
    19    21    22   ar
    20     1    26    1
    21    28    26    1
    22    28    29    1
    23    29    30    1
    24    30    31    1
    25    31    32    1
    26    32    33    1
    27    33    36    1
    28    36    37    1
    29    37    38    2
    30    37    39   am
    31    39    40    1
    32    40    41    1
    33    41    42    1
    34    42    43    1
    35    33    34   am
    36    34    35    2
    37    10    11   ar
    38    11    12   ar
    39    12    13   ar
    40    13    14   ar
    41    14     6   ar
    42    13     8   ar
    43    22    17   ar
    44    34    28    1
    45    43    39    1
    46     3     4    1
    47    26    27    1
@<TRIPOS>MOLECULE
*****
 43 47 0 0 0
SMALL
GASTEIGER

@<TRIPOS>ATOM
      1 C          63.5090   87.1045   13.9411 C.2     1  UNL1        0.3851
      2 N          64.8933   86.8387   14.4538 N.am    1  UNL1        0.0007
      3 N          62.6852   85.9796   13.3879 N.pl3   1  UNL1       -0.2438
      4 H          62.4331   85.2235   13.9659 H       1  UNL1        0.2647
      5 C          62.4649   84.5956    5.6640 C.3     1  UNL1        0.0725
      6 C          62.2714   85.0179    7.0902 C.ar    1  UNL1        0.1233
      7 C          63.1401   84.6306    8.2501 C.ar    1  UNL1        0.0361
      8 C          62.5808   85.2751    9.4837 C.ar    1  UNL1        0.0400
      9 C          63.0204   85.2480   10.9176 C.ar    1  UNL1        0.0365
     10 C          62.2456   86.0066   11.9540 C.ar    1  UNL1        0.1168
     11 C          61.0312   86.7922   11.5565 C.ar    1  UNL1        0.0365
     12 C          60.5915   86.8192   10.1227 C.ar    1  UNL1        0.0404
     13 C          61.3664   86.0607    9.0863 C.ar    1  UNL1        0.1450
     14 O          61.1752   85.9017    7.6070 O.2     1  UNL1       -0.4577
     15 C          65.4540   85.4480   14.4133 C.2     1  UNL1        0.3433
     16 O          66.9345   85.2327   14.5224 O.2     1  UNL1       -0.2483
     17 C          64.5342   84.2726   14.2637 C.ar    1  UNL1        0.0919
     18 C          64.6135   83.4092   13.0397 C.ar    1  UNL1        0.0093
     19 C          63.6937   82.2338   12.8902 C.ar    1  UNL1        0.0205
     20 CA         62.6946   81.9217   13.9647 C.ar    1  UNL1        0.0952
     21 N          62.6154   82.7851   15.1887 N.ar    1  UNL1       -0.2425
     22 C          63.5352   83.9606   15.3382 C.ar    1  UNL1        0.1049
     23 C          61.7749   80.7463   13.8151 C.2     1  UNL1        0.0905
     24 O          60.3831   80.8076   14.3711 O.co2   1  UNL1       -0.5430
     25 OXT        62.2469   79.5097   13.1095 O.co2   1  UNL1       -0.5430
     26 N          62.9483   88.4952   13.9816 N.pl3   1  UNL1       -0.2585
     27 H          62.3983   88.7822   14.7461 H       1  UNL1        0.2589
     28 C          63.2256   89.4487   12.8573 C.3     1  UNL1        0.2142
     29 C          62.3852   89.2675   11.6281 C.3     1  UNL1        0.0490
     30 C          62.4183   90.0501   10.3488 C.3     1  UNL1        0.0057
     31 C          63.2999   91.2073    9.9829 C.3     1  UNL1        0.0216
     32 C          64.3662   91.8675   10.8058 C.3     1  UNL1        0.0940
     33 N          64.8141   91.5337   12.1979 N.am    1  UNL1       -0.2686
     34 C          64.3065   90.4572   13.1109 C.2     1  UNL1        0.2622
     35 O          64.9673   90.3790   14.4553 O.2     1  UNL1       -0.2712
     36 C          65.9154   92.3896   12.7500 C.3     1  UNL1        0.1794
     37 C          66.3317   93.6354   12.0258 C.2     1  UNL1        0.2459
     38 O          65.9465   94.9808   12.5654 O.2     1  UNL1       -0.2730
     39 N          67.1332   93.5357   10.7618 N.am    1  UNL1       -0.2781
     40 C          67.5899   92.2667   10.1051 C.3     1  UNL1        0.0935
     41 C          68.3577   92.6343    8.8701 C.3     1  UNL1        0.0233
     42 C          68.3757   94.1304    8.7635 C.3     1  UNL1        0.0233
     43 C          67.6189   94.6875    9.9327 C.3     1  UNL1        0.0935
@<TRIPOS>UNITY_ATOM_ATTR
24 1
charge -1
@<TRIPOS>BOND
     1     5     6    1
     2     6     7   ar
     3     7     8   ar
     4     8     9   ar
     5     9    10   ar
     6    10     3    1
     7     3     1    1
     8     1     2    2
     9     2    15    1
    10    15    16    2
    11    15    17    1
    12    17    18   ar
    13    18    19   ar
    14    19    20   ar
    15    20    23    1
    16    23    24   ar
    17    23    25   ar
    18    20    21   ar
    19    21    22   ar
    20     1    26    1
    21    28    26    1
    22    28    29    1
    23    29    30    1
    24    30    31    1
    25    31    32    1
    26    32    33    1
    27    33    36    1
    28    36    37    1
    29    37    38    2
    30    37    39   am
    31    39    40    1
    32    40    41    1
    33    41    42    1
    34    42    43    1
    35    33    34   am
    36    34    35    2
    37    10    11   ar
    38    11    12   ar
    39    12    13   ar
    40    13    14   ar
    41    14     6   ar
    42    13     8   ar
    43    22    17   ar
    44    34    28    1
    45    43    39    1
    46     3     4    1
    47    26    27    1
@<TRIPOS>MOLECULE
*****
 43 47 0 0 0
SMALL
GASTEIGER

@<TRIPOS>ATOM
      1 C          61.4629   87.8882   11.5664 C.2     1  UNL1        0.3851
      2 N          62.7288   87.0946   11.4340 N.am    1  UNL1        0.0007
      3 N          60.1923   87.3816   10.9509 N.pl3   1  UNL1       -0.2438
      4 H          59.5945   86.7949   11.4683 H       1  UNL1        0.2647
      5 C          59.1561   91.6951    4.4745 C.3     1  UNL1        0.0725
      6 C          59.2490   90.6557    5.5520 C.ar    1  UNL1        0.1233
      7 C          59.7556   90.8746    6.9468 C.ar    1  UNL1        0.0361
      8 C          59.6714   89.5691    7.6808 C.ar    1  UNL1        0.0400
      9 C          60.0312   89.1819    9.0845 C.ar    1  UNL1        0.0365
     10 C          59.8324   87.7689    9.5471 C.ar    1  UNL1        0.1168
     11 C          59.2738   86.7432    8.6059 C.ar    1  UNL1        0.0365
     12 C          58.9139   87.1305    7.2022 C.ar    1  UNL1        0.0404
     13 C          59.1128   88.5434    6.7396 C.ar    1  UNL1        0.1450
     14 O          58.8517   89.2150    5.4240 O.2     1  UNL1       -0.4577
     15 C          62.7241   85.7942   10.6862 C.2     1  UNL1        0.3433
     16 O          62.6891   85.7916    9.1866 O.2     1  UNL1       -0.2483
     17 C          62.7544   84.4966   11.4380 C.ar    1  UNL1        0.0919
     18 C          63.1050   83.2245   10.7246 C.ar    1  UNL1        0.0093
     19 C          63.1354   81.9269   11.4764 C.ar    1  UNL1        0.0205
     20 CA         62.8151   81.9013   12.9416 C.ar    1  UNL1        0.0952
     21 N          62.4645   83.1734   13.6550 N.ar    1  UNL1       -0.2425
     22 C          62.4342   84.4711   12.9031 C.ar    1  UNL1        0.1049
     23 C          62.8454   80.6037   13.6934 C.2     1  UNL1        0.0905
     24 O          64.0930   80.1820   14.4114 O.co2   1  UNL1       -0.5430
     25 OXT        61.6282   79.7278   13.7271 O.co2   1  UNL1       -0.5430
     26 N          61.4676   89.1886   12.3142 N.pl3   1  UNL1       -0.2585
     27 H          60.7001   89.4339   12.8799 H       1  UNL1        0.2589
     28 C          62.6417   90.1151   12.2001 C.3     1  UNL1        0.2142
     29 C          62.7841   90.8265   10.8872 C.3     1  UNL1        0.0490
     30 C          63.8382   91.8063   10.4639 C.3     1  UNL1        0.0057
     31 C          65.0101   92.3166   11.2490 C.3     1  UNL1        0.0216
     32 C          65.4174   91.9731   12.6512 C.3     1  UNL1        0.0940
     33 N          64.7534   91.0346   13.6146 N.am    1  UNL1       -0.2686
     34 C          63.5181   90.2077   13.4139 C.2     1  UNL1        0.2622
     35 O          63.1045   89.3615   14.5813 O.2     1  UNL1       -0.2712
     36 C          65.4117   90.9060   14.9563 C.3     1  UNL1        0.1794
     37 C          65.8813   92.1319   15.6818 C.2     1  UNL1        0.2459
     38 O          64.9365   92.8859   16.5700 O.2     1  UNL1       -0.2730
     39 N          67.2958   92.6039   15.5192 N.am    1  UNL1       -0.2781
     40 C          68.3492   91.9566   14.6699 C.3     1  UNL1        0.0935
     41 C          69.6096   92.7587   14.8031 C.3     1  UNL1        0.0233
     42 C          69.3353   93.9019   15.7348 C.3     1  UNL1        0.0233
     43 C          67.9053   93.8062   16.1773 C.3     1  UNL1        0.0935
@<TRIPOS>UNITY_ATOM_ATTR
24 1
charge -1
@<TRIPOS>BOND
     1     5     6    1
     2     6     7   ar
     3     7     8   ar
     4     8     9   ar
     5     9    10   ar
     6    10     3    1
     7     3     1    1
     8     1     2    2
     9     2    15    1
    10    15    16    2
    11    15    17    1
    12    17    18   ar
    13    18    19   ar
    14    19    20   ar
    15    20    23    1
    16    23    24   ar
    17    23    25   ar
    18    20    21   ar
    19    21    22   ar
    20     1    26    1
    21    28    26    1
    22    28    29    1
    23    29    30    1
    24    30    31    1
    25    31    32    1
    26    32    33    1
    27    33    36    1
    28    36    37    1
    29    37    38    2
    30    37    39   am
    31    39    40    1
    32    40    41    1
    33    41    42    1
    34    42    43    1
    35    33    34   am
    36    34    35    2
    37    10    11   ar
    38    11    12   ar
    39    12    13   ar
    40    13    14   ar
    41    14     6   ar
    42    13     8   ar
    43    22    17   ar
    44    34    28    1
    45    43    39    1
    46     3     4    1
    47    26    27    1
