@<TRIPOS>MOLECULE
*****
 29 32 0 0 0
SMALL
GASTEIGER

@<TRIPOS>ATOM
      1 C          63.2846   90.6399   11.7764 C.ar    1  UNL1        0.0281
      2 C          62.5782   90.6930   10.4542 C.ar    1  UNL1        0.0027
      3 C          62.0096   89.4401    9.8569 C.ar    1  UNL1        0.0339
      4 C          62.1474   88.1341   10.5817 C.ar    1  UNL1        0.1311
      5 N          62.8538   88.0810   11.9039 N.ar    1  UNL1       -0.2035
      6 C          63.4224   89.3339   12.5012 C.ar    1  UNL1        0.2196
      7 F          64.1288   89.2809   13.8234 F       1  UNL1       -0.1835
      8 N          61.5787   86.8812    9.9844 N.pl3   1  UNL1       -0.3144
      9 H          60.6034   86.7696    9.9109 H       1  UNL1        0.1485
     10 C          62.4962   85.7983    9.4988 C.3     1  UNL1        0.1154
     11 C          62.8974   84.6857   10.4214 C.ar    1  UNL1       -0.0025
     12 C          63.7947   83.5894    9.9283 C.ar    1  UNL1       -0.0018
     13 C          64.1960   82.4768   10.8508 C.ar    1  UNL1        0.0111
     14 C          63.7001   82.4605   12.2663 C.ar    1  UNL1        0.0577
     15 CL         64.1014   81.3479   13.1889 Cl      1  UNL1       -0.0822
     16 C          62.8029   83.5568   12.7594 C.ar    1  UNL1        0.0111
     17 C          62.4015   84.6694   11.8369 C.ar    1  UNL1       -0.0018
     18 C          63.8533   91.8929   12.3738 C.3     1  UNL1        0.0571
     19 C          65.7740   92.2273   15.1431 C.2     1  UNL1        0.1355
     20 C          66.8298   92.3959   16.1952 C.2     1  UNL1        0.0837
     21 C          68.2658   92.5657   15.7962 C.2     1  UNL1        0.2385
     22 N          68.6460   92.5670   14.3453 N.2     1  UNL1       -0.0338
     23 C          67.5902   92.3984   13.2932 C.2     1  UNL1        0.3621
     24 N          67.6629   92.3590   11.7955 N.2     1  UNL1       -0.0346
     25 C          66.2719   92.1648   11.2688 C.2     1  UNL1        0.2284
     26 C          65.3395   92.0842   12.4410 C.2     1  UNL1        0.0256
     27 C          66.1542   92.2286   13.6921 C.3     1  UNL1        0.1907
     28 C          63.9442   90.9486   16.4722 C.3     1  UNL1        0.2520
     29 O          64.3381   92.0575   15.5421 O.2     1  UNL1       -0.4746
@<TRIPOS>BOND
     1    28    29    1
     2    29    19    1
     3    19    20    2
     4    20    21    1
     5    21    22    2
     6    22    23    1
     7    23    24    2
     8    24    25    1
     9    25    26    2
    10    26    18    1
    11    18     1    1
    12     1     2   ar
    13     2     3   ar
    14     3     4   ar
    15     4     8    1
    16     8    10    1
    17    10    11    1
    18    11    12   ar
    19    12    13   ar
    20    13    14   ar
    21    14    15    1
    22    14    16   ar
    23    16    17   ar
    24     4     5   ar
    25     5     6   ar
    26     6     7    1
    27    26    27    1
    28    27    19    1
    29    27    23    1
    30     6     1   ar
    31    17    11   ar
    32     8     9    1
@<TRIPOS>MOLECULE
*****
 29 32 0 0 0
SMALL
GASTEIGER

@<TRIPOS>ATOM
      1 C          63.8400   89.2374   15.0843 C.ar    1  UNL1        0.0281
      2 C          64.2510   88.3227   13.9688 C.ar    1  UNL1        0.0027
      3 C          64.2488   86.8373   14.1776 C.ar    1  UNL1        0.0339
      4 C          63.8356   86.2666   15.5018 C.ar    1  UNL1        0.1311
      5 N          63.4246   87.1813   16.6173 N.ar    1  UNL1       -0.2035
      6 C          63.4268   88.6667   16.4085 C.ar    1  UNL1        0.2196
      7 F          63.0158   89.5815   17.5240 F       1  UNL1       -0.1835
      8 N          63.8334   84.7812   15.7105 N.pl3   1  UNL1       -0.3144
      9 H          64.5994   84.3446   16.1486 H       1  UNL1        0.1485
     10 C          62.6643   83.9610   15.2517 C.3     1  UNL1        0.1154
     11 C          62.7744   83.1271   14.0097 C.ar    1  UNL1       -0.0025
     12 C          62.3716   81.6825   14.0383 C.ar    1  UNL1       -0.0018
     13 C          62.4818   80.8485   12.7964 C.ar    1  UNL1        0.0111
     14 C          62.9947   81.4591   11.5260 C.ar    1  UNL1        0.0577
     15 CL         63.1048   80.6252   10.2840 Cl      1  UNL1       -0.0822
     16 C          63.3975   82.9038   11.4974 C.ar    1  UNL1        0.0111
     17 C          63.2874   83.7377   12.7393 C.ar    1  UNL1       -0.0018
     18 C          63.8422   90.7229   14.8756 C.3     1  UNL1        0.0571
     19 C          64.5055   91.8047   11.7355 C.2     1  UNL1        0.1355
     20 C          65.0347   92.3653   10.4489 C.2     1  UNL1        0.0837
     21 C          66.3955   92.9951   10.4086 C.2     1  UNL1        0.2385
     22 N          67.2270   93.0643   11.6551 N.2     1  UNL1       -0.0338
     23 C          66.6978   92.5038   12.9418 C.2     1  UNL1        0.3621
     24 N          67.2842   92.4286   14.3203 N.2     1  UNL1       -0.0346
     25 C          66.2859   91.7523   15.2126 C.2     1  UNL1        0.2284
     26 C          65.0825   91.4095   14.3854 C.2     1  UNL1        0.0256
     27 C          65.3370   91.8740   12.9820 C.3     1  UNL1        0.1907
     28 C          62.7300   90.2159   10.6995 C.3     1  UNL1        0.2520
     29 O          63.1447   91.1749   11.7757 O.2     1  UNL1       -0.4746
@<TRIPOS>BOND
     1    28    29    1
     2    29    19    1
     3    19    20    2
     4    20    21    1
     5    21    22    2
     6    22    23    1
     7    23    24    2
     8    24    25    1
     9    25    26    2
    10    26    18    1
    11    18     1    1
    12     1     2   ar
    13     2     3   ar
    14     3     4   ar
    15     4     8    1
    16     8    10    1
    17    10    11    1
    18    11    12   ar
    19    12    13   ar
    20    13    14   ar
    21    14    15    1
    22    14    16   ar
    23    16    17   ar
    24     4     5   ar
    25     5     6   ar
    26     6     7    1
    27    26    27    1
    28    27    19    1
    29    27    23    1
    30     6     1   ar
    31    17    11   ar
    32     8     9    1
@<TRIPOS>MOLECULE
*****
 29 32 0 0 0
SMALL
GASTEIGER

@<TRIPOS>ATOM
      1 C          62.4349   88.4025   11.5336 C.ar    1  UNL1        0.0281
      2 C          63.2341   88.4402   12.8024 C.ar    1  UNL1        0.0027
      3 C          63.9879   89.6816   13.1773 C.ar    1  UNL1        0.0339
      4 C          63.9425   90.8854   12.2835 C.ar    1  UNL1        0.1311
      5 N          63.1433   90.8477   11.0147 N.ar    1  UNL1       -0.2035
      6 C          62.3895   89.6063   10.6398 C.ar    1  UNL1        0.2196
      7 F          61.5902   89.5686    9.3710 F       1  UNL1       -0.1835
      8 N          64.6963   92.1267   12.6585 N.pl3   1  UNL1       -0.3144
      9 H          64.2492   92.8380   13.1718 H       1  UNL1        0.1485
     10 C          66.1314   92.2846   12.2515 C.3     1  UNL1        0.1154
     11 C          66.5160   93.3328   11.2499 C.ar    1  UNL1       -0.0025
     12 C          66.1505   94.7679   11.4884 C.ar    1  UNL1       -0.0018
     13 C          66.5350   95.8162   10.4868 C.ar    1  UNL1        0.0111
     14 C          67.2851   95.4294    9.2468 C.ar    1  UNL1        0.0577
     15 CL         67.6697   96.4776    8.2452 Cl      1  UNL1       -0.0822
     16 C          67.6507   93.9943    9.0083 C.ar    1  UNL1        0.0111
     17 C          67.2661   92.9460   10.0099 C.ar    1  UNL1       -0.0018
     18 C          61.6810   87.1610   11.1586 C.3     1  UNL1        0.0571
     19 C          63.1217   84.3361   12.3477 C.2     1  UNL1        0.1355
     20 C          63.8152   83.0332   12.6152 C.2     1  UNL1        0.0837
     21 C          64.3755   82.2341   11.4761 C.2     1  UNL1        0.2385
     22 N          64.2422   82.7378   10.0695 N.2     1  UNL1       -0.0338
     23 C          63.5487   84.0407    9.8021 C.2     1  UNL1        0.3621
     24 N          63.2678   84.7858    8.5309 N.2     1  UNL1       -0.0346
     25 C          62.5340   86.0454    8.8843 C.2     1  UNL1        0.2284
     26 C          62.3613   86.0787   10.3739 C.2     1  UNL1        0.0256
     27 C          62.9884   84.8398   10.9412 C.3     1  UNL1        0.1907
     28 C          62.4801   84.5318   14.8577 C.3     1  UNL1        0.2520
     29 O          62.5615   85.1352   13.4868 O.2     1  UNL1       -0.4746
@<TRIPOS>BOND
     1    28    29    1
     2    29    19    1
     3    19    20    2
     4    20    21    1
     5    21    22    2
     6    22    23    1
     7    23    24    2
     8    24    25    1
     9    25    26    2
    10    26    18    1
    11    18     1    1
    12     1     2   ar
    13     2     3   ar
    14     3     4   ar
    15     4     8    1
    16     8    10    1
    17    10    11    1
    18    11    12   ar
    19    12    13   ar
    20    13    14   ar
    21    14    15    1
    22    14    16   ar
    23    16    17   ar
    24     4     5   ar
    25     5     6   ar
    26     6     7    1
    27    26    27    1
    28    27    19    1
    29    27    23    1
    30     6     1   ar
    31    17    11   ar
    32     8     9    1
@<TRIPOS>MOLECULE
*****
 29 32 0 0 0
SMALL
GASTEIGER

@<TRIPOS>ATOM
      1 C          62.1444   86.7145   11.0779 C.ar    1  UNL1        0.0281
      2 C          61.1171   86.1769   10.1262 C.ar    1  UNL1        0.0027
      3 C          60.3404   87.1164    9.2520 C.ar    1  UNL1        0.0339
      4 C          60.5910   88.5932    9.3295 C.ar    1  UNL1        0.1311
      5 N          61.6183   89.1308   10.2812 N.ar    1  UNL1       -0.2035
      6 C          62.3949   88.1914   11.1554 C.ar    1  UNL1        0.2196
      7 F          63.4223   88.7288   12.1072 F       1  UNL1       -0.1835
      8 N          59.8143   89.5326    8.4553 N.pl3   1  UNL1       -0.3144
      9 H          59.5042   90.3956    8.8135 H       1  UNL1        0.1485
     10 C          59.5100   89.1571    7.0352 C.3     1  UNL1        0.1154
     11 C          59.5600   90.1986    5.9569 C.ar    1  UNL1       -0.0025
     12 C          60.8729   90.5709    5.3342 C.ar    1  UNL1       -0.0018
     13 C          60.9231   91.6123    4.2559 C.ar    1  UNL1        0.0111
     14 C          59.6603   92.2815    3.8003 C.ar    1  UNL1        0.0577
     15 CL         59.7104   93.3230    2.7219 Cl      1  UNL1       -0.0822
     16 C          58.3474   91.9093    4.4229 C.ar    1  UNL1        0.0111
     17 C          58.2973   90.8678    5.5013 C.ar    1  UNL1       -0.0018
     18 C          62.9211   85.7751   11.9522 C.3     1  UNL1        0.0571
     19 C          62.2314   83.0099   13.7820 C.2     1  UNL1        0.1355
     20 C          62.0119   81.6498   14.3752 C.2     1  UNL1        0.0837
     21 C          62.3345   80.4220   13.5760 C.2     1  UNL1        0.2385
     22 N          62.8766   80.5544   12.1837 N.2     1  UNL1       -0.0338
     23 C          63.0962   81.9145   11.5906 C.2     1  UNL1        0.3621
     24 N          63.6141   82.3547   10.2534 N.2     1  UNL1       -0.0346
     25 C          63.6116   83.8544   10.2261 C.2     1  UNL1        0.2284
     26 C          63.0921   84.3411   11.5464 C.2     1  UNL1        0.0256
     27 C          62.7735   83.1422   12.3897 C.3     1  UNL1        0.1907
     28 C          62.8221   84.6732   15.6884 C.3     1  UNL1        0.2520
     29 O          61.9088   84.2376   14.5811 O.2     1  UNL1       -0.4746
@<TRIPOS>BOND
     1    28    29    1
     2    29    19    1
     3    19    20    2
     4    20    21    1
     5    21    22    2
     6    22    23    1
     7    23    24    2
     8    24    25    1
     9    25    26    2
    10    26    18    1
    11    18     1    1
    12     1     2   ar
    13     2     3   ar
    14     3     4   ar
    15     4     8    1
    16     8    10    1
    17    10    11    1
    18    11    12   ar
    19    12    13   ar
    20    13    14   ar
    21    14    15    1
    22    14    16   ar
    23    16    17   ar
    24     4     5   ar
    25     5     6   ar
    26     6     7    1
    27    26    27    1
    28    27    19    1
    29    27    23    1
    30     6     1   ar
    31    17    11   ar
    32     8     9    1
@<TRIPOS>MOLECULE
*****
 29 32 0 0 0
SMALL
GASTEIGER

@<TRIPOS>ATOM
      1 C          63.1125   84.6801   10.3875 C.ar    1  UNL1        0.0281
      2 C          62.2841   85.3762   11.4264 C.ar    1  UNL1        0.0027
      3 C          62.2559   84.8580   12.8338 C.ar    1  UNL1        0.0339
      4 C          63.0560   83.6440   13.2023 C.ar    1  UNL1        0.1311
      5 N          63.8845   82.9479   12.1634 N.ar    1  UNL1       -0.2035
      6 C          63.9127   83.4661   10.7560 C.ar    1  UNL1        0.2196
      7 F          64.7411   82.7701    9.7170 F       1  UNL1       -0.1835
      8 N          63.0278   83.1259   14.6097 N.pl3   1  UNL1       -0.3144
      9 H          62.4784   82.3404   14.8341 H       1  UNL1        0.1485
     10 C          63.8365   83.8047   15.6752 C.3     1  UNL1        0.1154
     11 C          63.6918   85.2805   15.9007 C.ar    1  UNL1       -0.0025
     12 C          62.8774   85.7866   17.0543 C.ar    1  UNL1       -0.0018
     13 C          62.7327   87.2624   17.2799 C.ar    1  UNL1        0.0111
     14 C          63.4023   88.2322   16.3520 C.ar    1  UNL1        0.0577
     15 CL         63.2576   89.7080   16.5775 Cl      1  UNL1       -0.0822
     16 C          64.2167   87.7261   15.1984 C.ar    1  UNL1        0.0111
     17 C          64.3614   86.2503   14.9728 C.ar    1  UNL1       -0.0018
     18 C          63.1408   85.1982    8.9800 C.3     1  UNL1        0.0571
     19 C          61.4981   88.1391    9.3306 C.2     1  UNL1        0.1355
     20 C          60.5945   89.3362    9.3103 C.2     1  UNL1        0.0837
     21 C          59.3630   89.3320    8.4540 C.2     1  UNL1        0.2385
     22 N          59.0351   88.1306    7.6179 N.2     1  UNL1       -0.0338
     23 C          59.9387   86.9335    7.6381 C.2     1  UNL1        0.3621
     24 N          59.8742   85.6151    6.9255 N.2     1  UNL1       -0.0346
     25 C          61.0659   84.8046    7.3414 C.2     1  UNL1        0.2284
     26 C          61.8668   85.6221    8.3111 C.2     1  UNL1        0.0256
     27 C          61.1702   86.9378    8.4945 C.3     1  UNL1        0.1907
     28 C          62.7519   88.9286   11.4648 C.3     1  UNL1        0.2520
     29 O          62.7297   88.1434   10.1870 O.2     1  UNL1       -0.4746
@<TRIPOS>BOND
     1    28    29    1
     2    29    19    1
     3    19    20    2
     4    20    21    1
     5    21    22    2
     6    22    23    1
     7    23    24    2
     8    24    25    1
     9    25    26    2
    10    26    18    1
    11    18     1    1
    12     1     2   ar
    13     2     3   ar
    14     3     4   ar
    15     4     8    1
    16     8    10    1
    17    10    11    1
    18    11    12   ar
    19    12    13   ar
    20    13    14   ar
    21    14    15    1
    22    14    16   ar
    23    16    17   ar
    24     4     5   ar
    25     5     6   ar
    26     6     7    1
    27    26    27    1
    28    27    19    1
    29    27    23    1
    30     6     1   ar
    31    17    11   ar
    32     8     9    1
@<TRIPOS>MOLECULE
*****
 29 32 0 0 0
SMALL
GASTEIGER

@<TRIPOS>ATOM
      1 C          63.2832   89.4958   12.6150 C.ar    1  UNL1        0.0281
      2 C          63.4445   90.5833   11.5945 C.ar    1  UNL1        0.0027
      3 C          64.5004   91.6328   11.7774 C.ar    1  UNL1        0.0339
      4 C          65.3950   91.5949   12.9808 C.ar    1  UNL1        0.1311
      5 N          65.2338   90.5075   14.0013 N.ar    1  UNL1       -0.2035
      6 C          64.1779   89.4580   13.8184 C.ar    1  UNL1        0.2196
      7 F          64.0166   88.3705   14.8389 F       1  UNL1       -0.1835
      8 N          66.4509   92.6445   13.1636 N.pl3   1  UNL1       -0.3144
      9 H          67.3628   92.3845   13.4284 H       1  UNL1        0.1485
     10 C          66.1175   94.0903   12.9431 C.3     1  UNL1        0.1154
     11 C          66.4337   94.7410   11.6291 C.ar    1  UNL1       -0.0025
     12 C          67.0164   93.9284   10.5110 C.ar    1  UNL1       -0.0018
     13 C          67.3326   94.5790    9.1969 C.ar    1  UNL1        0.0111
     14 C          67.0660   96.0421    9.0010 C.ar    1  UNL1        0.0577
     15 CL         67.3822   96.6927    7.6870 Cl      1  UNL1       -0.0822
     16 C          66.4833   96.8546   10.1191 C.ar    1  UNL1        0.0111
     17 C          66.1671   96.2040   11.4332 C.ar    1  UNL1       -0.0018
     18 C          62.2272   88.4462   12.4321 C.3     1  UNL1        0.0571
     19 C          63.1936   85.2025   12.5539 C.2     1  UNL1        0.1355
     20 C          63.5773   83.7681   12.3415 C.2     1  UNL1        0.0837
     21 C          63.5257   83.1738   10.9652 C.2     1  UNL1        0.2385
     22 N          63.0903   84.0139    9.8014 N.2     1  UNL1       -0.0338
     23 C          62.7065   85.4483   10.0138 C.2     1  UNL1        0.3621
     24 N          62.2407   86.5137    9.0661 N.2     1  UNL1       -0.0346
     25 C          62.0045   87.7664    9.8566 C.2     1  UNL1        0.2284
     26 C          62.3243   87.4752   11.2929 C.2     1  UNL1        0.0256
     27 C          62.7582   86.0426   11.3901 C.3     1  UNL1        0.1907
     28 C          63.8017   84.9983   15.0716 C.3     1  UNL1        0.2520
     29 O          63.2452   85.7968   13.9302 O.2     1  UNL1       -0.4746
@<TRIPOS>BOND
     1    28    29    1
     2    29    19    1
     3    19    20    2
     4    20    21    1
     5    21    22    2
     6    22    23    1
     7    23    24    2
     8    24    25    1
     9    25    26    2
    10    26    18    1
    11    18     1    1
    12     1     2   ar
    13     2     3   ar
    14     3     4   ar
    15     4     8    1
    16     8    10    1
    17    10    11    1
    18    11    12   ar
    19    12    13   ar
    20    13    14   ar
    21    14    15    1
    22    14    16   ar
    23    16    17   ar
    24     4     5   ar
    25     5     6   ar
    26     6     7    1
    27    26    27    1
    28    27    19    1
    29    27    23    1
    30     6     1   ar
    31    17    11   ar
    32     8     9    1
@<TRIPOS>MOLECULE
*****
 29 32 0 0 0
SMALL
GASTEIGER

@<TRIPOS>ATOM
      1 C          62.3461   87.2469   11.5774 C.ar    1  UNL1        0.0281
      2 C          61.9737   88.3648   10.6492 C.ar    1  UNL1        0.0027
      3 C          62.5665   89.7290   10.8426 C.ar    1  UNL1        0.0339
      4 C          63.5317   89.9754   11.9641 C.ar    1  UNL1        0.1311
      5 N          63.9041   88.8575   12.8923 N.ar    1  UNL1       -0.2035
      6 C          63.3113   87.4932   12.6990 C.ar    1  UNL1        0.2196
      7 F          63.6836   86.3752   13.6272 F       1  UNL1       -0.1835
      8 N          64.1244   91.3396   12.1573 N.pl3   1  UNL1       -0.3144
      9 H          64.4498   91.8495   11.3806 H       1  UNL1        0.1485
     10 C          64.2215   91.9272   13.5341 C.3     1  UNL1        0.1154
     11 C          65.5613   92.0828   14.1904 C.ar    1  UNL1       -0.0025
     12 C          66.8152   91.9066   13.3863 C.ar    1  UNL1       -0.0018
     13 C          68.1550   92.0622   14.0425 C.ar    1  UNL1        0.0111
     14 C          68.2409   92.3939   15.5028 C.ar    1  UNL1        0.0577
     15 CL         69.5807   92.5495   16.1591 Cl      1  UNL1       -0.0822
     16 C          66.9870   92.5701   16.3069 C.ar    1  UNL1        0.0111
     17 C          65.6472   92.4145   15.6507 C.ar    1  UNL1       -0.0018
     18 C          61.7533   85.8825   11.3841 C.3     1  UNL1        0.0571
     19 C          62.6782   83.4137   13.5100 C.2     1  UNL1        0.1355
     20 C          63.2265   82.2240   14.2408 C.2     1  UNL1        0.0837
     21 C          64.1274   81.2575   13.5308 C.2     1  UNL1        0.2385
     22 N          64.4801   81.4806   12.0901 N.2     1  UNL1       -0.0338
     23 C          63.9318   82.6703   11.3593 C.2     1  UNL1        0.3621
     24 N          64.1028   83.1474    9.9475 N.2     1  UNL1       -0.0346
     25 C          63.3076   84.4088    9.7850 C.2     1  UNL1        0.2284
     26 C          62.6451   84.7112   11.0963 C.2     1  UNL1        0.0256
     27 C          63.0309   83.6368   12.0693 C.3     1  UNL1        0.1907
     28 C          61.9781   84.6588   15.6801 C.3     1  UNL1        0.2520
     29 O          61.7772   84.3802   14.2200 O.2     1  UNL1       -0.4746
@<TRIPOS>BOND
     1    28    29    1
     2    29    19    1
     3    19    20    2
     4    20    21    1
     5    21    22    2
     6    22    23    1
     7    23    24    2
     8    24    25    1
     9    25    26    2
    10    26    18    1
    11    18     1    1
    12     1     2   ar
    13     2     3   ar
    14     3     4   ar
    15     4     8    1
    16     8    10    1
    17    10    11    1
    18    11    12   ar
    19    12    13   ar
    20    13    14   ar
    21    14    15    1
    22    14    16   ar
    23    16    17   ar
    24     4     5   ar
    25     5     6   ar
    26     6     7    1
    27    26    27    1
    28    27    19    1
    29    27    23    1
    30     6     1   ar
    31    17    11   ar
    32     8     9    1
@<TRIPOS>MOLECULE
*****
 29 32 0 0 0
SMALL
GASTEIGER

@<TRIPOS>ATOM
      1 C          63.1312   84.6238    9.9121 C.ar    1  UNL1        0.0281
      2 C          63.1454   84.8902    8.4360 C.ar    1  UNL1        0.0027
      3 C          62.0936   85.7656    7.8218 C.ar    1  UNL1        0.0339
      4 C          61.0276   86.3746    8.6836 C.ar    1  UNL1        0.1311
      5 N          61.0134   86.1082   10.1597 N.ar    1  UNL1       -0.2035
      6 C          62.0652   85.2328   10.7739 C.ar    1  UNL1        0.2196
      7 F          62.0512   84.9664   12.2500 F       1  UNL1       -0.1835
      8 N          59.9758   87.2500    8.0694 N.pl3   1  UNL1       -0.3144
      9 H          59.3594   86.8806    7.3964 H       1  UNL1        0.1485
     10 C          59.8630   88.6882    8.4804 C.3     1  UNL1        0.1154
     11 C          60.6716   89.2043    9.6335 C.ar    1  UNL1       -0.0025
     12 C          60.0273   89.3979   10.9742 C.ar    1  UNL1       -0.0018
     13 C          60.8359   89.9140   12.1274 C.ar    1  UNL1        0.0111
     14 C          62.2888   90.2365   11.9399 C.ar    1  UNL1        0.0577
     15 CL         63.0974   90.7526   13.0930 Cl      1  UNL1       -0.0822
     16 C          62.9331   90.0429   10.5992 C.ar    1  UNL1        0.0111
     17 C          62.1245   89.5268    9.4460 C.ar    1  UNL1       -0.0018
     18 C          64.1831   83.7483   10.5264 C.3     1  UNL1        0.0571
     19 C          62.9349   80.8469   11.7486 C.2     1  UNL1        0.1355
     20 C          62.4415   79.6665   12.5316 C.2     1  UNL1        0.0837
     21 C          62.5204   79.6741   14.0295 C.2     1  UNL1        0.2385
     22 N          63.0926   80.8621   14.7444 N.2     1  UNL1       -0.0338
     23 C          63.5860   82.0425   13.9613 C.2     1  UNL1        0.3621
     24 N          64.1955   83.3454   14.3868 N.2     1  UNL1       -0.0346
     25 C          64.4934   84.1430   13.1518 C.2     1  UNL1        0.2284
     26 C          64.0679   83.3331   11.9632 C.2     1  UNL1        0.0256
     27 C          63.5072   82.0349   12.4634 C.3     1  UNL1        0.1907
     28 C          62.7741   79.5371    9.5105 C.3     1  UNL1        0.2520
     29 O          62.8561   80.8392   10.2506 O.2     1  UNL1       -0.4746
@<TRIPOS>BOND
     1    28    29    1
     2    29    19    1
     3    19    20    2
     4    20    21    1
     5    21    22    2
     6    22    23    1
     7    23    24    2
     8    24    25    1
     9    25    26    2
    10    26    18    1
    11    18     1    1
    12     1     2   ar
    13     2     3   ar
    14     3     4   ar
    15     4     8    1
    16     8    10    1
    17    10    11    1
    18    11    12   ar
    19    12    13   ar
    20    13    14   ar
    21    14    15    1
    22    14    16   ar
    23    16    17   ar
    24     4     5   ar
    25     5     6   ar
    26     6     7    1
    27    26    27    1
    28    27    19    1
    29    27    23    1
    30     6     1   ar
    31    17    11   ar
    32     8     9    1
@<TRIPOS>MOLECULE
*****
 29 32 0 0 0
SMALL
GASTEIGER

@<TRIPOS>ATOM
      1 C          61.7339   92.4630    2.1812 C.ar    1  UNL1        0.0281
      2 C          60.3090   92.9007    2.3484 C.ar    1  UNL1        0.0027
      3 C          59.5360   92.4887    3.5660 C.ar    1  UNL1        0.0339
      4 C          60.1878   91.6390    4.6163 C.ar    1  UNL1        0.1311
      5 N          61.6127   91.2013    4.4491 N.ar    1  UNL1       -0.2035
      6 C          62.3858   91.6133    3.2315 C.ar    1  UNL1        0.2196
      7 F          63.8107   91.1756    3.0641 F       1  UNL1       -0.1835
      8 N          59.4146   91.2270    5.8339 N.pl3   1  UNL1       -0.3144
      9 H          59.1780   91.8960    6.5164 H       1  UNL1        0.1485
     10 C          59.0020   89.7959    6.0118 C.3     1  UNL1        0.1154
     11 C          59.4749   89.0219    7.2065 C.ar    1  UNL1       -0.0025
     12 C          59.2347   87.5434    7.2853 C.ar    1  UNL1       -0.0018
     13 C          59.7075   86.7693    8.4800 C.ar    1  UNL1        0.0111
     14 C          60.4205   87.4739    9.5959 C.ar    1  UNL1        0.0577
     15 CL         60.8934   86.6999   10.7906 Cl      1  UNL1       -0.0822
     16 C          60.6607   88.9524    9.5171 C.ar    1  UNL1        0.0111
     17 C          60.1879   89.7264    8.3224 C.ar    1  UNL1       -0.0018
     18 C          62.5071   92.8750    0.9635 C.3     1  UNL1        0.0571
     19 C          63.9309   94.5661   -1.6022 C.2     1  UNL1        0.1355
     20 C          64.6852   95.4565   -2.5446 C.2     1  UNL1        0.0837
     21 C          65.6011   96.5150   -2.0053 C.2     1  UNL1        0.2385
     22 N          65.7626   96.6831   -0.5235 N.2     1  UNL1       -0.0338
     23 C          65.0082   95.7927    0.4189 C.2     1  UNL1        0.3621
     24 N          64.9657   95.7231    1.9167 N.2     1  UNL1       -0.0346
     25 C          64.0236   94.6217    2.3030 C.2     1  UNL1        0.2284
     26 C          63.4839   94.0105    1.0440 C.2     1  UNL1        0.0256
     27 C          64.0924   94.7342   -0.1205 C.3     1  UNL1        0.1907
     28 C          61.6945   93.8923   -2.7400 C.3     1  UNL1        0.2520
     29 O          63.0151   93.5077   -2.1416 O.2     1  UNL1       -0.4746
@<TRIPOS>BOND
     1    28    29    1
     2    29    19    1
     3    19    20    2
     4    20    21    1
     5    21    22    2
     6    22    23    1
     7    23    24    2
     8    24    25    1
     9    25    26    2
    10    26    18    1
    11    18     1    1
    12     1     2   ar
    13     2     3   ar
    14     3     4   ar
    15     4     8    1
    16     8    10    1
    17    10    11    1
    18    11    12   ar
    19    12    13   ar
    20    13    14   ar
    21    14    15    1
    22    14    16   ar
    23    16    17   ar
    24     4     5   ar
    25     5     6   ar
    26     6     7    1
    27    26    27    1
    28    27    19    1
    29    27    23    1
    30     6     1   ar
    31    17    11   ar
    32     8     9    1
