@<TRIPOS>MOLECULE
*****
 32 34 0 0 0
SMALL
GASTEIGER

@<TRIPOS>ATOM
      1 C          66.3269   92.5252   14.8742 C.3     1  UNL1        0.1261
      2 C          66.8447   92.3638   16.2727 C.3     1  UNL1        0.0290
      3 N          65.7054   91.2324   15.3131 N.am    1  UNL1       -0.2963
      4 C          64.7918   90.3253   14.5434 C.2     1  UNL1        0.2474
      5 O          64.3357   89.0937   15.2682 O.2     1  UNL1       -0.2701
      6 C          64.2740   90.4867   13.1449 C.ar    1  UNL1        0.0690
      7 C          63.3814   89.3457   12.7559 C.ar    1  UNL1        0.0260
      8 C          62.7568   89.3133   11.3926 C.ar    1  UNL1        0.1262
      9 C          63.0247   90.4218   10.4183 C.ar    1  UNL1        0.0328
     10 C          63.9172   91.5629   10.8073 C.ar    1  UNL1        0.0726
     11 CL         64.1851   92.6714    9.8330 Cl      1  UNL1       -0.0809
     12 C          64.5419   91.5953   12.1706 C.ar    1  UNL1        0.0655
     13 N          65.3938   92.8162   12.3543 N.am    1  UNL1       -0.2819
     14 C          66.1882   93.2301   13.5574 C.2     1  UNL1        0.2420
     15 O          66.9438   94.5192   13.4265 O.2     1  UNL1       -0.2731
     16 H          65.9264   90.9408   16.2271 H       1  UNL1        0.1501
     17 H          65.4373   93.4266   11.5831 H       1  UNL1        0.1549
     18 S          61.8642   88.1722   11.0035 S.O2    1  UNL1        0.0737
     19 O          62.5705   87.2850   11.9853 O.2     1  UNL1       -0.1499
     20 O          61.1579   89.0594   10.0217 O.2     1  UNL1       -0.1499
     21 N          60.9716   87.0312   10.6144 N.pl3   1  UNL1       -0.2128
     22 H          60.2327   86.7605   11.2059 H       1  UNL1        0.1738
     23 C          61.2050   86.3026    9.3242 C.ar    1  UNL1        0.0923
     24 C          62.5353   85.6648    9.0530 C.ar    1  UNL1        0.0204
     25 C          62.7687   84.9363    7.7628 C.ar    1  UNL1        0.0311
     26 C          61.6717   84.8454    6.7437 C.ar    1  UNL1        0.1425
     27 F          61.9051   84.1168    5.4535 F       1  UNL1       -0.2041
     28 C          60.3414   85.4832    7.0149 C.ar    1  UNL1        0.0606
     29 C          60.1081   86.2117    8.3051 C.ar    1  UNL1        0.1568
     30 F          58.7777   86.8495    8.5763 F       1  UNL1       -0.2027
     31 C          68.3915   93.6889   15.9387 C.3     1  UNL1        0.0022
     32 C          67.1788   93.7461   15.0578 C.3     1  UNL1        0.0269
@<TRIPOS>BOND
     1    31    32    1
     2    32     1    1
     3     1     2    1
     4     1     3    1
     5     3     4   am
     6     4     5    2
     7     4     6    1
     8     6     7   ar
     9     7     8   ar
    10     8    18    1
    11    18    19    2
    12    18    20    2
    13    18    21    1
    14    21    23    1
    15    23    24   ar
    16    24    25   ar
    17    25    26   ar
    18    26    27    1
    19    26    28   ar
    20    28    29   ar
    21    29    30    1
    22     8     9   ar
    23     9    10   ar
    24    10    11    1
    25    10    12   ar
    26    12    13    1
    27    13    14   am
    28    14    15    2
    29    14     1    1
    30    12     6   ar
    31    29    23   ar
    32     3    16    1
    33    21    22    1
    34    13    17    1
@<TRIPOS>MOLECULE
*****
 32 34 0 0 0
SMALL
GASTEIGER

@<TRIPOS>ATOM
      1 C          63.4277   82.5747   13.1929 C.3     1  UNL1        0.1261
      2 C          63.8722   81.5424   14.1864 C.3     1  UNL1        0.0290
      3 N          63.9526   83.4060   14.3258 N.am    1  UNL1       -0.2963
      4 C          64.0170   84.9005   14.4375 C.2     1  UNL1        0.2474
      5 O          64.6034   85.4332   15.7111 O.2     1  UNL1       -0.2701
      6 C          63.5725   85.9327   13.4440 C.ar    1  UNL1        0.0690
      7 C          63.8168   87.3228   13.9516 C.ar    1  UNL1        0.0260
      8 C          63.4424   88.5056   13.1085 C.ar    1  UNL1        0.1262
      9 C          62.8237   88.2983   11.7579 C.ar    1  UNL1        0.0328
     10 C          62.5794   86.9081   11.2503 C.ar    1  UNL1        0.0726
     11 CL         61.9607   86.7008    9.8997 Cl      1  UNL1       -0.0809
     12 C          62.9538   85.7253   12.0933 C.ar    1  UNL1        0.0655
     13 N          62.6268   84.4345   11.4027 N.am    1  UNL1       -0.2819
     14 C          62.8377   83.0324   11.8920 C.2     1  UNL1        0.2420
     15 O          62.4008   81.9441   10.9568 O.2     1  UNL1       -0.2731
     16 H          64.3008   82.9045   15.0981 H       1  UNL1        0.1501
     17 H          62.2199   84.5188   10.5101 H       1  UNL1        0.1549
     18 S          63.6867   89.8959   13.6161 S.O2    1  UNL1        0.0737
     19 O          64.1215   89.3367   14.9383 O.2     1  UNL1       -0.1499
     20 O          63.2519   90.4551   12.2940 O.2     1  UNL1       -0.1499
     21 N          63.9310   91.2861   14.1237 N.pl3   1  UNL1       -0.2128
     22 H          63.1752   91.9044   14.2486 H       1  UNL1        0.1738
     23 C          65.3269   91.7341   14.4411 C.ar    1  UNL1        0.0923
     24 C          66.4051   91.6202   13.4046 C.ar    1  UNL1        0.0204
     25 C          67.8010   92.0682   13.7220 C.ar    1  UNL1        0.0311
     26 C          68.1186   92.6303   15.0760 C.ar    1  UNL1        0.1425
     27 F          69.5146   93.0783   15.3934 F       1  UNL1       -0.2041
     28 C          67.0404   92.7443   16.1125 C.ar    1  UNL1        0.0606
     29 C          65.6446   92.2962   15.7951 C.ar    1  UNL1        0.1568
     30 F          64.5663   92.4102   16.8316 F       1  UNL1       -0.2027
     31 C          62.5608   80.1274   13.2903 C.3     1  UNL1        0.0022
     32 C          63.1007   81.2839   12.5022 C.3     1  UNL1        0.0269
@<TRIPOS>BOND
     1    31    32    1
     2    32     1    1
     3     1     2    1
     4     1     3    1
     5     3     4   am
     6     4     5    2
     7     4     6    1
     8     6     7   ar
     9     7     8   ar
    10     8    18    1
    11    18    19    2
    12    18    20    2
    13    18    21    1
    14    21    23    1
    15    23    24   ar
    16    24    25   ar
    17    25    26   ar
    18    26    27    1
    19    26    28   ar
    20    28    29   ar
    21    29    30    1
    22     8     9   ar
    23     9    10   ar
    24    10    11    1
    25    10    12   ar
    26    12    13    1
    27    13    14   am
    28    14    15    2
    29    14     1    1
    30    12     6   ar
    31    29    23   ar
    32     3    16    1
    33    21    22    1
    34    13    17    1
@<TRIPOS>MOLECULE
*****
 32 34 0 0 0
SMALL
GASTEIGER

@<TRIPOS>ATOM
      1 C          63.4183   82.4897   13.0827 C.3     1  UNL1        0.1261
      2 C          63.9500   81.5936   14.1618 C.3     1  UNL1        0.0290
      3 N          63.9242   83.4631   14.1057 N.am    1  UNL1       -0.2963
      4 C          63.9034   84.9623   14.0607 C.2     1  UNL1        0.2474
      5 O          64.4923   85.6574   15.2524 O.2     1  UNL1       -0.2701
      6 C          63.3716   85.8584   12.9817 C.ar    1  UNL1        0.0690
      7 C          63.5474   87.3055   13.3349 C.ar    1  UNL1        0.0260
      8 C          63.0808   88.3708   12.3876 C.ar    1  UNL1        0.1262
      9 C          62.4384   87.9889   11.0870 C.ar    1  UNL1        0.0328
     10 C          62.2626   86.5417   10.7337 C.ar    1  UNL1        0.0726
     11 CL         61.6203   86.1599    9.4332 Cl      1  UNL1       -0.0809
     12 C          62.7292   85.4765   11.6811 C.ar    1  UNL1        0.0655
     13 N          62.4600   84.1042   11.1384 N.am    1  UNL1       -0.2819
     14 C          62.7666   82.7750   11.7621 C.2     1  UNL1        0.2420
     15 O          62.3691   81.5721   10.9591 O.2     1  UNL1       -0.2731
     16 H          64.3225   83.0655   14.9135 H       1  UNL1        0.1501
     17 H          62.0245   84.0718   10.2560 H       1  UNL1        0.1549
     18 S          63.2565   89.8180   12.7409 S.O2    1  UNL1        0.0737
     19 O          63.3724   90.1593   11.2849 O.2     1  UNL1       -0.1499
     20 O          63.1406   89.4767   14.1969 O.2     1  UNL1       -0.1499
     21 N          63.4323   91.2652   13.0941 N.pl3   1  UNL1       -0.2128
     22 H          62.6679   91.8828   13.0343 H       1  UNL1        0.1738
     23 C          64.7726   91.7713   13.5384 C.ar    1  UNL1        0.0923
     24 C          65.2395   91.5253   14.9425 C.ar    1  UNL1        0.0204
     25 C          66.5797   92.0315   15.3867 C.ar    1  UNL1        0.0311
     26 C          67.4532   92.7837   14.4269 C.ar    1  UNL1        0.1425
     27 F          68.7935   93.2899   14.8712 F       1  UNL1       -0.2041
     28 C          66.9863   93.0298   13.0228 C.ar    1  UNL1        0.0606
     29 C          65.6460   92.5236   12.5786 C.ar    1  UNL1        0.1568
     30 F          65.1791   92.7696   11.1744 F       1  UNL1       -0.2027
     31 C          62.5458   80.0664   13.4238 C.3     1  UNL1        0.0022
     32 C          63.1491   81.1175   12.5400 C.3     1  UNL1        0.0269
@<TRIPOS>BOND
     1    31    32    1
     2    32     1    1
     3     1     2    1
     4     1     3    1
     5     3     4   am
     6     4     5    2
     7     4     6    1
     8     6     7   ar
     9     7     8   ar
    10     8    18    1
    11    18    19    2
    12    18    20    2
    13    18    21    1
    14    21    23    1
    15    23    24   ar
    16    24    25   ar
    17    25    26   ar
    18    26    27    1
    19    26    28   ar
    20    28    29   ar
    21    29    30    1
    22     8     9   ar
    23     9    10   ar
    24    10    11    1
    25    10    12   ar
    26    12    13    1
    27    13    14   am
    28    14    15    2
    29    14     1    1
    30    12     6   ar
    31    29    23   ar
    32     3    16    1
    33    21    22    1
    34    13    17    1
@<TRIPOS>MOLECULE
*****
 32 34 0 0 0
SMALL
GASTEIGER

@<TRIPOS>ATOM
      1 C          63.0725   82.3673   12.3223 C.3     1  UNL1        0.1261
      2 C          62.6581   81.5778   11.1161 C.3     1  UNL1        0.0290
      3 N          62.7639   83.4347   11.3146 N.am    1  UNL1       -0.2963
      4 C          62.8487   84.9238   11.4739 C.2     1  UNL1        0.2474
      5 O          62.4690   85.7301   10.2674 O.2     1  UNL1       -0.2701
      6 C          63.2631   85.7133   12.6801 C.ar    1  UNL1        0.0690
      7 C          63.2079   87.1886   12.4149 C.ar    1  UNL1        0.0260
      8 C          63.5846   88.1593   13.4947 C.ar    1  UNL1        0.1262
      9 C          64.0165   87.6547   14.8396 C.ar    1  UNL1        0.0328
     10 C          64.0717   86.1793   15.1048 C.ar    1  UNL1        0.0726
     11 CL         64.5036   85.6747   16.4497 Cl      1  UNL1       -0.0809
     12 C          63.6950   85.2087   14.0250 C.ar    1  UNL1        0.0655
     13 N          63.8192   83.7899   14.4958 N.am    1  UNL1       -0.2819
     14 C          63.5421   82.5253   13.7381 C.2     1  UNL1        0.2420
     15 O          63.7641   81.2503   14.4964 O.2     1  UNL1       -0.2731
     16 H          62.4663   83.1158   10.4320 H       1  UNL1        0.1501
     17 H          64.1227   83.6732   15.4251 H       1  UNL1        0.1549
     18 S          63.5294   89.6347   13.2295 S.O2    1  UNL1        0.0737
     19 O          63.9339   89.9048   14.6485 O.2     1  UNL1       -0.1499
     20 O          63.1250   89.3646   11.8106 O.2     1  UNL1       -0.1499
     21 N          63.4743   91.1100   12.9644 N.pl3   1  UNL1       -0.2128
     22 H          62.6881   91.6316   13.2457 H       1  UNL1        0.1738
     23 C          64.6170   91.7907   12.2708 C.ar    1  UNL1        0.0923
     24 C          65.8860   92.0747   13.0183 C.ar    1  UNL1        0.0204
     25 C          67.0286   92.7553   12.3247 C.ar    1  UNL1        0.0311
     26 C          66.9022   93.1520   10.8836 C.ar    1  UNL1        0.1425
     27 F          68.0448   93.8327   10.1900 F       1  UNL1       -0.2041
     28 C          65.6331   92.8680   10.1362 C.ar    1  UNL1        0.0606
     29 C          64.4905   92.1874   10.8298 C.ar    1  UNL1        0.1568
     30 F          63.2213   91.9034   10.0823 F       1  UNL1       -0.2027
     31 C          62.7157   79.8249   11.9235 C.3     1  UNL1        0.0022
     32 C          63.1966   80.9485   12.7931 C.3     1  UNL1        0.0269
@<TRIPOS>BOND
     1    31    32    1
     2    32     1    1
     3     1     2    1
     4     1     3    1
     5     3     4   am
     6     4     5    2
     7     4     6    1
     8     6     7   ar
     9     7     8   ar
    10     8    18    1
    11    18    19    2
    12    18    20    2
    13    18    21    1
    14    21    23    1
    15    23    24   ar
    16    24    25   ar
    17    25    26   ar
    18    26    27    1
    19    26    28   ar
    20    28    29   ar
    21    29    30    1
    22     8     9   ar
    23     9    10   ar
    24    10    11    1
    25    10    12   ar
    26    12    13    1
    27    13    14   am
    28    14    15    2
    29    14     1    1
    30    12     6   ar
    31    29    23   ar
    32     3    16    1
    33    21    22    1
    34    13    17    1
@<TRIPOS>MOLECULE
*****
 32 34 0 0 0
SMALL
GASTEIGER

@<TRIPOS>ATOM
      1 C          66.6122   93.0352   14.5741 C.3     1  UNL1        0.1261
      2 C          67.6297   94.0103   14.0605 C.3     1  UNL1        0.0290
      3 N          66.2998   93.1027   13.1085 N.am    1  UNL1       -0.2963
      4 C          65.2332   92.3748   12.3453 C.2     1  UNL1        0.2474
      5 O          65.1766   92.6597   10.8737 O.2     1  UNL1       -0.2701
      6 C          64.2157   91.3997   12.8589 C.ar    1  UNL1        0.0690
      7 C          63.3294   90.9007   11.7564 C.ar    1  UNL1        0.0260
      8 C          62.2409   89.9136   12.0578 C.ar    1  UNL1        0.1262
      9 C          62.0387   89.4256   13.4617 C.ar    1  UNL1        0.0328
     10 C          62.9250   89.9245   14.5642 C.ar    1  UNL1        0.0726
     11 CL         62.7227   89.4365   15.9681 Cl      1  UNL1       -0.0809
     12 C          64.0134   90.9116   14.2628 C.ar    1  UNL1        0.0655
     13 N          64.7788   91.2781   15.4997 N.am    1  UNL1       -0.2819
     14 C          65.9353   92.2232   15.6383 C.2     1  UNL1        0.2420
     15 O          66.4881   92.3766   17.0243 O.2     1  UNL1       -0.2731
     16 H          66.8701   93.7043   12.5774 H       1  UNL1        0.1501
     17 H          64.4829   90.8405   16.3305 H       1  UNL1        0.1549
     18 S          61.3546   89.4146   10.9553 S.O2    1  UNL1        0.0737
     19 O          62.0289   90.3458    9.9919 O.2     1  UNL1       -0.1499
     20 O          60.6804   88.4834   11.9188 O.2     1  UNL1       -0.1499
     21 N          60.4684   88.9156    9.8528 N.pl3   1  UNL1       -0.2128
     22 H          59.6270   89.3837    9.6476 H       1  UNL1        0.1738
     23 C          60.8641   87.7033    9.0629 C.ar    1  UNL1        0.0923
     24 C          62.1889   87.0454    9.3120 C.ar    1  UNL1        0.0204
     25 C          62.5845   85.8332    8.5222 C.ar    1  UNL1        0.0311
     26 C          61.6554   85.2789    7.4832 C.ar    1  UNL1        0.1425
     27 F          62.0512   84.0666    6.6933 F       1  UNL1       -0.2041
     28 C          60.3307   85.9368    7.2341 C.ar    1  UNL1        0.0606
     29 C          59.9350   87.1490    8.0240 C.ar    1  UNL1        0.1568
     30 F          58.6101   87.8069    7.7749 F       1  UNL1       -0.2027
     31 C          68.8096   93.8355   15.7060 C.3     1  UNL1        0.0022
     32 C          67.3776   93.4017   15.8110 C.3     1  UNL1        0.0269
@<TRIPOS>BOND
     1    31    32    1
     2    32     1    1
     3     1     2    1
     4     1     3    1
     5     3     4   am
     6     4     5    2
     7     4     6    1
     8     6     7   ar
     9     7     8   ar
    10     8    18    1
    11    18    19    2
    12    18    20    2
    13    18    21    1
    14    21    23    1
    15    23    24   ar
    16    24    25   ar
    17    25    26   ar
    18    26    27    1
    19    26    28   ar
    20    28    29   ar
    21    29    30    1
    22     8     9   ar
    23     9    10   ar
    24    10    11    1
    25    10    12   ar
    26    12    13    1
    27    13    14   am
    28    14    15    2
    29    14     1    1
    30    12     6   ar
    31    29    23   ar
    32     3    16    1
    33    21    22    1
    34    13    17    1
@<TRIPOS>MOLECULE
*****
 32 34 0 0 0
SMALL
GASTEIGER

@<TRIPOS>ATOM
      1 C          65.6444   94.0834   11.6485 C.3     1  UNL1        0.1261
      2 C          65.7503   95.1582   10.6075 C.3     1  UNL1        0.0290
      3 N          64.8289   93.5329   10.5162 N.am    1  UNL1       -0.2963
      4 C          64.0901   92.2296   10.4431 C.2     1  UNL1        0.2474
      5 O          63.3606   91.9661    9.1592 O.2     1  UNL1       -0.2701
      6 C          63.9842   91.1547   11.4841 C.ar    1  UNL1        0.0690
      7 C          63.1445   90.0081   11.0045 C.ar    1  UNL1        0.0260
      8 C          62.9116   88.8247   11.8962 C.ar    1  UNL1        0.1262
      9 C          63.5184   88.7878   13.2674 C.ar    1  UNL1        0.0328
     10 C          64.3582   89.9344   13.7470 C.ar    1  UNL1        0.0726
     11 CL         64.9651   89.8975   15.1183 Cl      1  UNL1       -0.0809
     12 C          64.5911   91.1179   12.8553 C.ar    1  UNL1        0.0655
     13 N          65.4537   92.1467   13.5243 N.am    1  UNL1       -0.2819
     14 C          65.9225   93.4665   12.9872 C.2     1  UNL1        0.2420
     15 O          66.7831   94.2764   13.9110 O.2     1  UNL1       -0.2731
     16 H          64.7709   94.1024    9.7152 H       1  UNL1        0.1501
     17 H          65.7516   91.9266   14.4364 H       1  UNL1        0.1549
     18 S          62.0717   87.6780   11.4166 S.O2    1  UNL1        0.0737
     19 O          62.8329   86.7461   12.3122 O.2     1  UNL1       -0.1499
     20 O          61.3106   88.6099   10.5210 O.2     1  UNL1       -0.1499
     21 N          61.2320   86.5313   10.9371 N.pl3   1  UNL1       -0.2128
     22 H          60.5563   86.1334   11.5323 H       1  UNL1        0.1738
     23 C          61.4217   85.9910    9.5506 C.ar    1  UNL1        0.0923
     24 C          62.7161   85.3343    9.1723 C.ar    1  UNL1        0.0204
     25 C          62.9058   84.7941    7.7859 C.ar    1  UNL1        0.0311
     26 C          61.8011   84.9105    6.7779 C.ar    1  UNL1        0.1425
     27 F          61.9908   84.3702    5.3914 F       1  UNL1       -0.2041
     28 C          60.5067   85.5672    7.1563 C.ar    1  UNL1        0.0606
     29 C          60.3170   86.1075    8.5426 C.ar    1  UNL1        0.1568
     30 F          59.0226   86.7642    8.9211 F       1  UNL1       -0.2027
     31 C          66.4509   96.5431   11.8709 C.3     1  UNL1        0.0022
     32 C          66.5070   95.1123   12.3174 C.3     1  UNL1        0.0269
@<TRIPOS>BOND
     1    31    32    1
     2    32     1    1
     3     1     2    1
     4     1     3    1
     5     3     4   am
     6     4     5    2
     7     4     6    1
     8     6     7   ar
     9     7     8   ar
    10     8    18    1
    11    18    19    2
    12    18    20    2
    13    18    21    1
    14    21    23    1
    15    23    24   ar
    16    24    25   ar
    17    25    26   ar
    18    26    27    1
    19    26    28   ar
    20    28    29   ar
    21    29    30    1
    22     8     9   ar
    23     9    10   ar
    24    10    11    1
    25    10    12   ar
    26    12    13    1
    27    13    14   am
    28    14    15    2
    29    14     1    1
    30    12     6   ar
    31    29    23   ar
    32     3    16    1
    33    21    22    1
    34    13    17    1
@<TRIPOS>MOLECULE
*****
 32 34 0 0 0
SMALL
GASTEIGER

@<TRIPOS>ATOM
      1 C          66.3991   92.7256   14.8157 C.3     1  UNL1        0.1261
      2 C          67.0141   92.6357   16.1809 C.3     1  UNL1        0.0290
      3 N          65.9467   91.3791   15.2975 N.am    1  UNL1       -0.2963
      4 C          65.0906   90.3715   14.5890 C.2     1  UNL1        0.2474
      5 O          64.8128   89.1065   15.3459 O.2     1  UNL1       -0.2701
      6 C          64.4757   90.4614   13.2239 C.ar    1  UNL1        0.0690
      7 C          63.6883   89.2277   12.8951 C.ar    1  UNL1        0.0260
      8 C          62.9902   89.1139   11.5724 C.ar    1  UNL1        0.1262
      9 C          63.0793   90.2338   10.5785 C.ar    1  UNL1        0.0328
     10 C          63.8667   91.4675   10.9072 C.ar    1  UNL1        0.0726
     11 CL         63.9559   92.5874    9.9133 Cl      1  UNL1       -0.0809
     12 C          64.5648   91.5813   12.2299 C.ar    1  UNL1        0.0655
     13 N          65.2910   92.8877   12.3557 N.am    1  UNL1       -0.2819
     14 C          66.1074   93.3971   13.5064 C.2     1  UNL1        0.2420
     15 O          66.7118   94.7576   13.3238 O.2     1  UNL1       -0.2731
     16 H          66.2519   91.1228   16.1977 H       1  UNL1        0.1501
     17 H          65.2228   93.4907   11.5805 H       1  UNL1        0.1549
     18 S          62.2028   87.8802   11.2436 S.O2    1  UNL1        0.0737
     19 O          62.8781   87.1500   12.3663 O.2     1  UNL1       -0.1499
     20 O          61.5274   88.6104   10.1208 O.2     1  UNL1       -0.1499
     21 N          61.4154   86.6466   10.9148 N.pl3   1  UNL1       -0.2128
     22 H          60.4373   86.6986   10.8163 H       1  UNL1        0.1738
     23 C          62.1185   85.3336   10.7361 C.ar    1  UNL1        0.0923
     24 C          62.0484   84.2925   11.8137 C.ar    1  UNL1        0.0204
     25 C          62.7514   82.9796   11.6350 C.ar    1  UNL1        0.0311
     26 C          63.5245   82.7078   10.3787 C.ar    1  UNL1        0.1425
     27 F          64.2275   81.3948   10.2000 F       1  UNL1       -0.2041
     28 C          63.5946   83.7488    9.3010 C.ar    1  UNL1        0.0606
     29 C          62.8916   85.0617    9.4798 C.ar    1  UNL1        0.1568
     30 F          62.9616   86.1028    8.4021 F       1  UNL1       -0.2027
     31 C          68.3900   94.1130   15.7439 C.3     1  UNL1        0.0022
     32 C          67.1253   94.0321   14.9415 C.3     1  UNL1        0.0269
@<TRIPOS>BOND
     1    31    32    1
     2    32     1    1
     3     1     2    1
     4     1     3    1
     5     3     4   am
     6     4     5    2
     7     4     6    1
     8     6     7   ar
     9     7     8   ar
    10     8    18    1
    11    18    19    2
    12    18    20    2
    13    18    21    1
    14    21    23    1
    15    23    24   ar
    16    24    25   ar
    17    25    26   ar
    18    26    27    1
    19    26    28   ar
    20    28    29   ar
    21    29    30    1
    22     8     9   ar
    23     9    10   ar
    24    10    11    1
    25    10    12   ar
    26    12    13    1
    27    13    14   am
    28    14    15    2
    29    14     1    1
    30    12     6   ar
    31    29    23   ar
    32     3    16    1
    33    21    22    1
    34    13    17    1
@<TRIPOS>MOLECULE
*****
 32 34 0 0 0
SMALL
GASTEIGER

@<TRIPOS>ATOM
      1 C          62.9162   82.2283   12.3289 C.3     1  UNL1        0.1261
      2 C          62.5443   81.5414   11.0483 C.3     1  UNL1        0.0290
      3 N          62.7749   83.3701   11.3665 N.am    1  UNL1       -0.2963
      4 C          62.9598   84.8366   11.6219 C.2     1  UNL1        0.2474
      5 O          62.7443   85.7352   10.4402 O.2     1  UNL1       -0.2701
      6 C          63.3317   85.5235   12.9025 C.ar    1  UNL1        0.0690
      7 C          63.4116   87.0106   12.7235 C.ar    1  UNL1        0.0260
      8 C          63.7704   87.8877   13.8863 C.ar    1  UNL1        0.1262
      9 C          64.0492   87.2776   15.2279 C.ar    1  UNL1        0.0328
     10 C          63.9693   85.7905   15.4069 C.ar    1  UNL1        0.0726
     11 CL         64.2481   85.1804   16.7485 Cl      1  UNL1       -0.0809
     12 C          63.6105   84.9134   14.2441 C.ar    1  UNL1        0.0655
     13 N          63.5863   83.4659   14.6365 N.am    1  UNL1       -0.2819
     14 C          63.2773   82.2708   13.7842 C.2     1  UNL1        0.2420
     15 O          63.3373   80.9428   14.4790 O.2     1  UNL1       -0.2731
     16 H          62.5281   83.1246   10.4456 H       1  UNL1        0.1501
     17 H          63.8017   83.2748   15.5780 H       1  UNL1        0.1549
     18 S          63.8504   89.3749   13.7074 S.O2    1  UNL1        0.0737
     19 O          65.0642   89.4154   14.5877 O.2     1  UNL1       -0.1499
     20 O          62.6366   89.3343   12.8271 O.2     1  UNL1       -0.1499
     21 N          63.9304   90.8620   13.5285 N.pl3   1  UNL1       -0.2128
     22 H          63.2215   91.3376   13.0382 H       1  UNL1        0.1738
     23 C          65.0905   91.6244   14.0969 C.ar    1  UNL1        0.0923
     24 C          66.2236   92.0399   13.2061 C.ar    1  UNL1        0.0204
     25 C          67.3836   92.8023   13.7745 C.ar    1  UNL1        0.0311
     26 C          67.4105   93.1492   15.2336 C.ar    1  UNL1        0.1425
     27 F          68.5706   93.9117   15.8019 F       1  UNL1       -0.2041
     28 C          66.2774   92.7338   16.1243 C.ar    1  UNL1        0.0606
     29 C          65.1174   91.9714   15.5559 C.ar    1  UNL1        0.1568
     30 F          63.9842   91.5559   16.4467 F       1  UNL1       -0.2027
     31 C          62.7050   79.7228   11.6744 C.3     1  UNL1        0.0022
     32 C          62.8919   80.7807   12.7213 C.3     1  UNL1        0.0269
@<TRIPOS>BOND
     1    31    32    1
     2    32     1    1
     3     1     2    1
     4     1     3    1
     5     3     4   am
     6     4     5    2
     7     4     6    1
     8     6     7   ar
     9     7     8   ar
    10     8    18    1
    11    18    19    2
    12    18    20    2
    13    18    21    1
    14    21    23    1
    15    23    24   ar
    16    24    25   ar
    17    25    26   ar
    18    26    27    1
    19    26    28   ar
    20    28    29   ar
    21    29    30    1
    22     8     9   ar
    23     9    10   ar
    24    10    11    1
    25    10    12   ar
    26    12    13    1
    27    13    14   am
    28    14    15    2
    29    14     1    1
    30    12     6   ar
    31    29    23   ar
    32     3    16    1
    33    21    22    1
    34    13    17    1
@<TRIPOS>MOLECULE
*****
 32 34 0 0 0
SMALL
GASTEIGER

@<TRIPOS>ATOM
      1 C          65.5856   94.2441   11.3662 C.3     1  UNL1        0.1261
      2 C          65.5599   95.1758   10.1909 C.3     1  UNL1        0.0290
      3 N          64.7511   93.4985   10.3673 N.am    1  UNL1       -0.2963
      4 C          64.1026   92.1533   10.5089 C.2     1  UNL1        0.2474
      5 O          63.3255   91.6769    9.3176 O.2     1  UNL1       -0.2701
      6 C          64.1283   91.2216   11.6842 C.ar    1  UNL1        0.0690
      7 C          63.3464   89.9714   11.4096 C.ar    1  UNL1        0.0260
      8 C          63.2452   88.9045   12.4591 C.ar    1  UNL1        0.1262
      9 C          63.9258   89.0878   13.7831 C.ar    1  UNL1        0.0328
     10 C          64.7077   90.3381   14.0577 C.ar    1  UNL1        0.0726
     11 CL         65.3883   90.5214   15.3818 Cl      1  UNL1       -0.0809
     12 C          64.8089   91.4050   13.0083 C.ar    1  UNL1        0.0655
     13 N          65.6319   92.5653   13.4840 N.am    1  UNL1       -0.2819
     14 C          65.9776   93.8289   12.7532 C.2     1  UNL1        0.2420
     15 O          66.8276   94.8063   13.5094 O.2     1  UNL1       -0.2731
     16 H          64.6105   93.9518    9.5048 H       1  UNL1        0.1501
     17 H          65.9930   92.4873   14.3965 H       1  UNL1        0.1549
     18 S          62.4633   87.6541   12.1845 S.O2    1  UNL1        0.0737
     19 O          61.5030   88.4397   11.3415 O.2     1  UNL1       -0.1499
     20 O          63.4235   86.8685   13.0275 O.2     1  UNL1       -0.1499
     21 N          61.6814   86.4038   11.9099 N.pl3   1  UNL1       -0.2128
     22 H          60.7093   86.3872   12.0648 H       1  UNL1        0.1738
     23 C          62.3806   85.1788   11.3994 C.ar    1  UNL1        0.0923
     24 C          62.8347   85.1149    9.9713 C.ar    1  UNL1        0.0204
     25 C          63.5339   83.8899    9.4608 C.ar    1  UNL1        0.0311
     26 C          63.7789   82.7290   10.3784 C.ar    1  UNL1        0.1425
     27 F          64.4781   81.5040    9.8679 F       1  UNL1       -0.2041
     28 C          63.3248   82.7929   11.8066 C.ar    1  UNL1        0.0606
     29 C          62.6256   84.0179   12.3171 C.ar    1  UNL1        0.1568
     30 F          62.1714   84.0819   13.7453 F       1  UNL1       -0.2027
     31 C          66.2561   96.7483   11.1931 C.3     1  UNL1        0.0022
     32 C          66.4086   95.4045   11.8419 C.3     1  UNL1        0.0269
@<TRIPOS>BOND
     1    31    32    1
     2    32     1    1
     3     1     2    1
     4     1     3    1
     5     3     4   am
     6     4     5    2
     7     4     6    1
     8     6     7   ar
     9     7     8   ar
    10     8    18    1
    11    18    19    2
    12    18    20    2
    13    18    21    1
    14    21    23    1
    15    23    24   ar
    16    24    25   ar
    17    25    26   ar
    18    26    27    1
    19    26    28   ar
    20    28    29   ar
    21    29    30    1
    22     8     9   ar
    23     9    10   ar
    24    10    11    1
    25    10    12   ar
    26    12    13    1
    27    13    14   am
    28    14    15    2
    29    14     1    1
    30    12     6   ar
    31    29    23   ar
    32     3    16    1
    33    21    22    1
    34    13    17    1
