@<TRIPOS>MOLECULE
*****
 17 18 0 0 0
SMALL
GASTEIGER

@<TRIPOS>ATOM
      1 O          63.6002   86.0350   13.6082 O.2     1  UNL1       -0.2866
      2 C          63.0294   85.5038   12.3268 C.2     1  UNL1        0.1957
      3 C          63.0750   84.0326   12.0385 C.ar    1  UNL1        0.0394
      4 C          63.7054   83.5358   10.7713 C.ar    1  UNL1        0.0032
      5 C          63.7510   82.0645   10.4830 C.ar    1  UNL1        0.0006
      6 C          63.1661   81.0899   11.4619 C.ar    1  UNL1        0.0067
      7 C          62.5357   81.5867   12.7290 C.ar    1  UNL1        0.0347
      8 BR         61.9508   80.6122   13.7079 Br      1  UNL1       -0.0490
      9 C          62.4901   83.0580   13.0173 C.ar    1  UNL1        0.0099
     10 C          62.4130   86.4440   11.3337 C.2     1  UNL1        0.0421
     11 C          61.2589   85.9918   10.4891 C.2     1  UNL1        0.0048
     12 C          60.6425   86.9320    9.4960 C.ar    1  UNL1        0.0193
     13 C          59.8357   86.3919    8.3526 C.ar    1  UNL1        0.0031
     14 C          59.2194   87.3321    7.3595 C.ar    1  UNL1        0.0207
     15 C          59.4098   88.8123    7.5099 C.ar    1  UNL1        0.0989
     16 N          60.2166   89.3524    8.6533 N.ar    1  UNL1       -0.2423
     17 C          60.8329   88.4123    9.6463 C.ar    1  UNL1        0.0988
@<TRIPOS>BOND
     1     1     2    2
     2     2    10    1
     3    10    11    2
     4    11    12    1
     5    12    13   ar
     6    13    14   ar
     7    14    15   ar
     8    15    16   ar
     9    16    17   ar
    10     2     3    1
    11     3     4   ar
    12     4     5   ar
    13     5     6   ar
    14     6     7   ar
    15     7     8    1
    16     7     9   ar
    17    17    12   ar
    18     9     3   ar
@<TRIPOS>MOLECULE
*****
 17 18 0 0 0
SMALL
GASTEIGER

@<TRIPOS>ATOM
      1 O          64.7449   82.9078    9.9218 O.2     1  UNL1       -0.2866
      2 C          63.6858   83.7426   10.5785 C.2     1  UNL1        0.1957
      3 C          63.2981   83.4776   12.0031 C.ar    1  UNL1        0.0394
      4 C          63.7441   84.4125   13.0881 C.ar    1  UNL1        0.0032
      5 C          63.3564   84.1475   14.5126 C.ar    1  UNL1        0.0006
      6 C          62.5228   82.9476   14.8523 C.ar    1  UNL1        0.0067
      7 C          62.0768   82.0127   13.7674 C.ar    1  UNL1        0.0347
      8 BR         61.2432   80.8129   14.1070 Br      1  UNL1       -0.0490
      9 C          62.4645   82.2778   12.3427 C.ar    1  UNL1        0.0099
     10 C          63.0143   84.8424    9.8106 C.2     1  UNL1        0.0421
     11 C          61.8318   85.5538   10.3985 C.2     1  UNL1        0.0048
     12 C          61.1603   86.6536    9.6306 C.ar    1  UNL1        0.0193
     13 C          60.1922   86.3201    8.5346 C.ar    1  UNL1        0.0031
     14 C          59.5207   87.4199    7.7668 C.ar    1  UNL1        0.0207
     15 C          59.8174   88.8532    8.0950 C.ar    1  UNL1        0.0989
     16 N          60.7856   89.1867    9.1910 N.ar    1  UNL1       -0.2423
     17 C          61.4571   88.0869    9.9589 C.ar    1  UNL1        0.0988
@<TRIPOS>BOND
     1     1     2    2
     2     2    10    1
     3    10    11    2
     4    11    12    1
     5    12    13   ar
     6    13    14   ar
     7    14    15   ar
     8    15    16   ar
     9    16    17   ar
    10     2     3    1
    11     3     4   ar
    12     4     5   ar
    13     5     6   ar
    14     6     7   ar
    15     7     8    1
    16     7     9   ar
    17    17    12   ar
    18     9     3   ar
@<TRIPOS>MOLECULE
*****
 17 18 0 0 0
SMALL
GASTEIGER

@<TRIPOS>ATOM
      1 O          61.6224   86.6092    9.0507 O.2     1  UNL1       -0.2866
      2 C          62.0110   86.7638   10.4912 C.2     1  UNL1        0.1957
      3 C          62.4679   88.0965   11.0059 C.ar    1  UNL1        0.0394
      4 C          62.2666   89.3300   10.1765 C.ar    1  UNL1        0.0032
      5 C          62.7236   90.6627   10.6912 C.ar    1  UNL1        0.0006
      6 C          63.3818   90.7620   12.0355 C.ar    1  UNL1        0.0067
      7 C          63.5830   89.5285   12.8649 C.ar    1  UNL1        0.0347
      8 BR         64.2412   89.6278   14.2091 Br      1  UNL1       -0.0490
      9 C          63.1261   88.1957   12.3501 C.ar    1  UNL1        0.0099
     10 C          61.9425   85.5855   11.4170 C.2     1  UNL1        0.0421
     11 C          62.8751   84.4263   11.2259 C.2     1  UNL1        0.0048
     12 C          62.8067   83.2481   12.1517 C.ar    1  UNL1        0.0193
     13 C          62.8602   81.8551   11.5980 C.ar    1  UNL1        0.0031
     14 C          62.7918   80.6769   12.5238 C.ar    1  UNL1        0.0207
     15 C          62.6698   80.8917   14.0033 C.ar    1  UNL1        0.0989
     16 N          62.6162   82.2847   14.5570 N.ar    1  UNL1       -0.2423
     17 C          62.6847   83.4629   13.6312 C.ar    1  UNL1        0.0988
@<TRIPOS>BOND
     1     1     2    2
     2     2    10    1
     3    10    11    2
     4    11    12    1
     5    12    13   ar
     6    13    14   ar
     7    14    15   ar
     8    15    16   ar
     9    16    17   ar
    10     2     3    1
    11     3     4   ar
    12     4     5   ar
    13     5     6   ar
    14     6     7   ar
    15     7     8    1
    16     7     9   ar
    17    17    12   ar
    18     9     3   ar
@<TRIPOS>MOLECULE
*****
 17 18 0 0 0
SMALL
GASTEIGER

@<TRIPOS>ATOM
      1 O          63.3878   87.5810   12.6676 O.2     1  UNL1       -0.2866
      2 C          62.5439   86.8215   11.6873 C.2     1  UNL1        0.1957
      3 C          61.7341   87.5611   10.6640 C.ar    1  UNL1        0.0394
      4 C          61.8135   89.0567   10.5826 C.ar    1  UNL1        0.0032
      5 C          61.0037   89.7963    9.5593 C.ar    1  UNL1        0.0006
      6 C          60.1143   89.0401    8.6173 C.ar    1  UNL1        0.0067
      7 C          60.0348   87.5444    8.6987 C.ar    1  UNL1        0.0347
      8 BR         59.1455   86.7883    7.7567 Br      1  UNL1       -0.0490
      9 C          60.8447   86.8049    9.7220 C.ar    1  UNL1        0.0099
     10 C          62.5099   85.3225   11.7303 C.2     1  UNL1        0.0421
     11 C          62.6693   84.6059   13.0383 C.2     1  UNL1        0.0048
     12 C          62.6353   83.1068   13.0813 C.ar    1  UNL1        0.0193
     13 C          62.8623   82.3152   11.8275 C.ar    1  UNL1        0.0031
     14 C          62.8283   80.8163   11.8706 C.ar    1  UNL1        0.0207
     15 C          62.5673   80.1089   13.1673 C.ar    1  UNL1        0.0989
     16 N          62.3404   80.9005   14.4210 N.ar    1  UNL1       -0.2423
     17 C          62.3744   82.3994   14.3780 C.ar    1  UNL1        0.0988
@<TRIPOS>BOND
     1     1     2    2
     2     2    10    1
     3    10    11    2
     4    11    12    1
     5    12    13   ar
     6    13    14   ar
     7    14    15   ar
     8    15    16   ar
     9    16    17   ar
    10     2     3    1
    11     3     4   ar
    12     4     5   ar
    13     5     6   ar
    14     6     7   ar
    15     7     8    1
    16     7     9   ar
    17    17    12   ar
    18     9     3   ar
@<TRIPOS>MOLECULE
*****
 17 18 0 0 0
SMALL
GASTEIGER

@<TRIPOS>ATOM
      1 O          62.7134   89.7783   14.8454 O.2     1  UNL1       -0.2866
      2 C          63.0959   90.1756   13.4504 C.2     1  UNL1        0.1957
      3 C          64.3369   90.9844   13.2146 C.ar    1  UNL1        0.0394
      4 C          64.4974   91.7571   11.9390 C.ar    1  UNL1        0.0032
      5 C          65.7384   92.5659   11.7031 C.ar    1  UNL1        0.0006
      6 C          66.8190   92.6021   12.7429 C.ar    1  UNL1        0.0067
      7 C          66.6585   91.8293   14.0185 C.ar    1  UNL1        0.0347
      8 BR         67.7390   91.8654   15.0582 Br      1  UNL1       -0.0490
      9 C          65.4174   91.0205   14.2543 C.ar    1  UNL1        0.0099
     10 C          62.2372   89.7641   12.2913 C.2     1  UNL1        0.0421
     11 C          62.6104   88.5660   11.4697 C.2     1  UNL1        0.0048
     12 C          61.7518   88.1544   10.3105 C.ar    1  UNL1        0.0193
     13 C          61.7303   86.7226    9.8643 C.ar    1  UNL1        0.0031
     14 C          60.8717   86.3111    8.7052 C.ar    1  UNL1        0.0207
     15 C          60.0346   87.3315    7.9924 C.ar    1  UNL1        0.0989
     16 N          60.0561   88.7634    8.4387 N.ar    1  UNL1       -0.2423
     17 C          60.9147   89.1748    9.5978 C.ar    1  UNL1        0.0988
@<TRIPOS>BOND
     1     1     2    2
     2     2    10    1
     3    10    11    2
     4    11    12    1
     5    12    13   ar
     6    13    14   ar
     7    14    15   ar
     8    15    16   ar
     9    16    17   ar
    10     2     3    1
    11     3     4   ar
    12     4     5   ar
    13     5     6   ar
    14     6     7   ar
    15     7     8    1
    16     7     9   ar
    17    17    12   ar
    18     9     3   ar
@<TRIPOS>MOLECULE
*****
 17 18 0 0 0
SMALL
GASTEIGER

@<TRIPOS>ATOM
      1 O          60.0799   89.1192   12.1555 O.2     1  UNL1       -0.2866
      2 C          61.0412   89.1018   11.0042 C.2     1  UNL1        0.1957
      3 C          60.9072   88.0625    9.9309 C.ar    1  UNL1        0.0394
      4 C          59.6406   87.9673    9.1331 C.ar    1  UNL1        0.0032
      5 C          59.5066   86.9281    8.0598 C.ar    1  UNL1        0.0006
      6 C          60.6393   85.9840    7.7842 C.ar    1  UNL1        0.0067
      7 C          61.9059   86.0793    8.5820 C.ar    1  UNL1        0.0347
      8 BR         63.0386   85.1353    8.3065 Br      1  UNL1       -0.0490
      9 C          62.0399   87.1186    9.6554 C.ar    1  UNL1        0.0099
     10 C          62.1366   90.1236   10.9262 C.2     1  UNL1        0.0421
     11 C          63.0516   90.3331   12.0962 C.2     1  UNL1        0.0048
     12 C          64.1470   91.3550   12.0182 C.ar    1  UNL1        0.0193
     13 C          64.4744   92.0048   10.7065 C.ar    1  UNL1        0.0031
     14 C          65.5697   93.0266   10.6286 C.ar    1  UNL1        0.0207
     15 C          66.3376   93.3986   11.8623 C.ar    1  UNL1        0.0989
     16 N          66.0102   92.7488   13.1739 N.ar    1  UNL1       -0.2423
     17 C          64.9148   91.7269   13.2519 C.ar    1  UNL1        0.0988
@<TRIPOS>BOND
     1     1     2    2
     2     2    10    1
     3    10    11    2
     4    11    12    1
     5    12    13   ar
     6    13    14   ar
     7    14    15   ar
     8    15    16   ar
     9    16    17   ar
    10     2     3    1
    11     3     4   ar
    12     4     5   ar
    13     5     6   ar
    14     6     7   ar
    15     7     8    1
    16     7     9   ar
    17    17    12   ar
    18     9     3   ar
@<TRIPOS>MOLECULE
*****
 17 18 0 0 0
SMALL
GASTEIGER

@<TRIPOS>ATOM
      1 O          64.0311   85.6254   16.4980 O.2     1  UNL1       -0.2866
      2 C          63.9229   85.6354   15.0019 C.2     1  UNL1        0.1957
      3 C          63.5081   84.3926   14.2717 C.ar    1  UNL1        0.0394
      4 C          62.6144   83.3917   14.9421 C.ar    1  UNL1        0.0032
      5 C          62.1997   82.1489   14.2119 C.ar    1  UNL1        0.0006
      6 C          62.6786   81.9069   12.8111 C.ar    1  UNL1        0.0067
      7 C          63.5723   82.9078   12.1406 C.ar    1  UNL1        0.0347
      8 BR         64.0513   82.6658   10.7399 Br      1  UNL1       -0.0490
      9 C          63.9871   84.1506   12.8710 C.ar    1  UNL1        0.0099
     10 C          64.2295   86.8883   14.2361 C.2     1  UNL1        0.0421
     11 C          63.9914   88.2290   14.8652 C.2     1  UNL1        0.0048
     12 C          64.2980   89.4818   14.0994 C.ar    1  UNL1        0.0193
     13 C          65.3488   90.4283   14.5994 C.ar    1  UNL1        0.0031
     14 C          65.6554   91.6811   13.8336 C.ar    1  UNL1        0.0207
     15 C          64.9111   91.9874   12.5678 C.ar    1  UNL1        0.0989
     16 N          63.8603   91.0410   12.0678 N.ar    1  UNL1       -0.2423
     17 C          63.5538   89.7882   12.8336 C.ar    1  UNL1        0.0988
@<TRIPOS>BOND
     1     1     2    2
     2     2    10    1
     3    10    11    2
     4    11    12    1
     5    12    13   ar
     6    13    14   ar
     7    14    15   ar
     8    15    16   ar
     9    16    17   ar
    10     2     3    1
    11     3     4   ar
    12     4     5   ar
    13     5     6   ar
    14     6     7   ar
    15     7     8    1
    16     7     9   ar
    17    17    12   ar
    18     9     3   ar
@<TRIPOS>MOLECULE
*****
 17 18 0 0 0
SMALL
GASTEIGER

@<TRIPOS>ATOM
      1 O          60.1471   88.5184   11.4110 O.2     1  UNL1       -0.2866
      2 C          61.6200   88.2507   11.3160 C.2     1  UNL1        0.1957
      3 C          62.1128   86.9865   10.6765 C.ar    1  UNL1        0.0394
      4 C          62.2613   86.9085    9.1859 C.ar    1  UNL1        0.0032
      5 C          62.7541   85.6444    8.5464 C.ar    1  UNL1        0.0006
      6 C          63.0983   84.4581    9.3975 C.ar    1  UNL1        0.0067
      7 C          62.9497   84.5361   10.8881 C.ar    1  UNL1        0.0347
      8 BR         63.2939   83.3499   11.7392 Br      1  UNL1       -0.0490
      9 C          62.4569   85.8003   11.5276 C.ar    1  UNL1        0.0099
     10 C          62.6001   89.2472   11.8605 C.2     1  UNL1        0.0421
     11 C          63.1280   90.3392   10.9779 C.2     1  UNL1        0.0048
     12 C          64.1081   91.3357   11.5224 C.ar    1  UNL1        0.0193
     13 C          64.5555   91.2440   12.9512 C.ar    1  UNL1        0.0031
     14 C          65.5355   92.2405   13.4956 C.ar    1  UNL1        0.0207
     15 C          66.0682   93.3287   12.6113 C.ar    1  UNL1        0.0989
     16 N          65.6209   93.4204   11.1825 N.ar    1  UNL1       -0.2423
     17 C          64.6408   92.4239   10.6381 C.ar    1  UNL1        0.0988
@<TRIPOS>BOND
     1     1     2    2
     2     2    10    1
     3    10    11    2
     4    11    12    1
     5    12    13   ar
     6    13    14   ar
     7    14    15   ar
     8    15    16   ar
     9    16    17   ar
    10     2     3    1
    11     3     4   ar
    12     4     5   ar
    13     5     6   ar
    14     6     7   ar
    15     7     8    1
    16     7     9   ar
    17    17    12   ar
    18     9     3   ar
@<TRIPOS>MOLECULE
*****
 17 18 0 0 0
SMALL
GASTEIGER

@<TRIPOS>ATOM
      1 O          60.5041   88.2972   11.7125 O.2     1  UNL1       -0.2866
      2 C          61.9561   87.9688   11.5280 C.2     1  UNL1        0.1957
      3 C          62.3568   86.6641   10.9058 C.ar    1  UNL1        0.0394
      4 C          62.7874   85.5197   11.7747 C.ar    1  UNL1        0.0032
      5 C          63.1881   84.2150   11.1525 C.ar    1  UNL1        0.0006
      6 C          63.1581   84.0547    9.6614 C.ar    1  UNL1        0.0067
      7 C          62.7275   85.1990    8.7925 C.ar    1  UNL1        0.0347
      8 BR         62.6976   85.0387    7.3014 Br      1  UNL1       -0.0490
      9 C          62.3268   86.5038    9.4147 C.ar    1  UNL1        0.0099
     10 C          63.0073   88.9452   11.9657 C.2     1  UNL1        0.0421
     11 C          62.9922   90.3497   11.4392 C.2     1  UNL1        0.0048
     12 C          64.0435   91.3261   11.8769 C.ar    1  UNL1        0.0193
     13 C          64.7933   92.1289   10.8555 C.ar    1  UNL1        0.0031
     14 C          65.8445   93.1052   11.2933 C.ar    1  UNL1        0.0207
     15 C          66.1459   93.2788   12.7524 C.ar    1  UNL1        0.0989
     16 N          65.3961   92.4761   13.7738 N.ar    1  UNL1       -0.2423
     17 C          64.3449   91.4997   13.3360 C.ar    1  UNL1        0.0988
@<TRIPOS>BOND
     1     1     2    2
     2     2    10    1
     3    10    11    2
     4    11    12    1
     5    12    13   ar
     6    13    14   ar
     7    14    15   ar
     8    15    16   ar
     9    16    17   ar
    10     2     3    1
    11     3     4   ar
    12     4     5   ar
    13     5     6   ar
    14     6     7   ar
    15     7     8    1
    16     7     9   ar
    17    17    12   ar
    18     9     3   ar
