@<TRIPOS>MOLECULE
*****
 35 39 0 0 0
SMALL
GASTEIGER

@<TRIPOS>ATOM
      1 C          62.8911   89.4963   12.3970 C.2     1  UNL1        0.2488
      2 O          62.4080   90.8992   12.1766 O.2     1  UNL1       -0.2728
      3 N          62.3423   88.3748   11.5658 N.am    1  UNL1       -0.2779
      4 C          61.3103   88.6562   10.5141 C.3     1  UNL1        0.0935
      5 C          60.7615   87.5346    9.6829 C.3     1  UNL1        0.0219
      6 C          61.2446   86.1318    9.9033 C.3     1  UNL1        0.0078
      7 C          62.2765   85.8504   10.9549 C.3     1  UNL1        0.0419
      8 C          62.8254   86.9720   11.7862 C.3     1  UNL1        0.0953
      9 C          62.7596   84.4476   11.1753 C.ar    1  UNL1       -0.0209
     10 C          61.9861   83.5188   12.0636 C.ar    1  UNL1       -0.0042
     11 C          62.4692   82.1160   12.2840 C.ar    1  UNL1       -0.0003
     12 C          63.7258   81.6418   11.6162 C.ar    1  UNL1       -0.0000
     13 C          64.4994   82.5706   10.7278 C.ar    1  UNL1       -0.0003
     14 C          64.0163   83.9734   10.5074 C.ar    1  UNL1       -0.0042
     15 C          63.9230   89.2150   13.4487 C.3     1  UNL1        0.1943
     16 C          68.9569   93.5703   15.1640 C.3     1  UNL1        0.0307
     17 C          67.7343   92.7117   15.0290 C.ar    1  UNL1       -0.0242
     18 C          66.6554   92.7742   16.0691 C.ar    1  UNL1        0.0160
     19 C          65.4328   91.9156   15.9341 C.ar    1  UNL1        0.0970
     20 N          64.3539   91.9781   16.9743 N.ar    1  UNL1       -0.2374
     21 C          63.1313   91.1195   16.8393 C.ar    1  UNL1        0.1595
     22 C          62.9877   90.1985   15.6641 C.ar    1  UNL1        0.2806
     23 O          61.7652   89.3399   15.5290 O.2     1  UNL1       -0.2652
     24 N          64.0667   90.1360   14.6239 N.ar    1  UNL1       -0.2839
     25 C          65.2892   90.9946   14.7589 C.ar    1  UNL1        0.0803
     26 C          66.3681   90.9321   13.7188 C.ar    1  UNL1        0.0142
     27 C          67.5907   91.7907   13.8538 C.ar    1  UNL1       -0.0243
     28 C          68.6697   91.7282   12.8136 C.3     1  UNL1        0.0307
     29 C          63.8573   86.6906   12.8379 C.3     1  UNL1        0.0926
     30 N          63.6442   85.5756   13.8184 N.3     1  UNL1       -0.2670
     31 C          64.7028   84.5296   14.0063 C.3     1  UNL1        0.1047
     32 C          64.4897   83.4146   14.9868 C.3     1  UNL1        0.1595
     33 O          63.2180   83.3457   15.7795 O.3     1  UNL1       -0.3508
     34 C          62.1595   84.3917   15.5916 C.3     1  UNL1        0.1595
     35 C          62.3726   85.5067   14.6110 C.3     1  UNL1        0.1047
@<TRIPOS>BOND
     1    16    17    1
     2    17    18   ar
     3    18    19   ar
     4    19    20   ar
     5    20    21   ar
     6    21    22   ar
     7    22    23    2
     8    22    24   ar
     9    24    15    1
    10    15     1    1
    11     1     2    2
    12     1     3   am
    13     3     4    1
    14     4     5    1
    15     5     6    1
    16     6     7    1
    17     7     9    1
    18     9    10   ar
    19    10    11   ar
    20    11    12   ar
    21    12    13   ar
    22    13    14   ar
    23     7     8    1
    24     8    29    1
    25    29    30    1
    26    30    31    1
    27    31    32    1
    28    32    33    1
    29    33    34    1
    30    34    35    1
    31    24    25   ar
    32    25    26   ar
    33    26    27   ar
    34    27    28    1
    35    27    17   ar
    36    25    19   ar
    37     8     3    1
    38    35    30    1
    39    14     9   ar
@<TRIPOS>MOLECULE
*****
 35 39 0 0 0
SMALL
GASTEIGER

@<TRIPOS>ATOM
      1 C          63.7304   89.8520   15.0127 C.2     1  UNL1        0.2488
      2 O          63.5878   91.1502   15.7504 O.2     1  UNL1       -0.2728
      3 N          63.4655   88.5552   15.7185 N.am    1  UNL1       -0.2779
      4 C          63.0580   88.5566   17.1621 C.3     1  UNL1        0.0935
      5 C          62.7931   87.2599   17.8679 C.3     1  UNL1        0.0219
      6 C          62.9357   85.9617   17.1302 C.3     1  UNL1        0.0078
      7 C          63.3431   85.9602   15.6866 C.3     1  UNL1        0.0419
      8 C          63.6080   87.2570   14.9807 C.3     1  UNL1        0.0953
      9 C          63.4857   84.6620   14.9489 C.ar    1  UNL1       -0.0209
     10 C          64.7961   84.2993   14.3154 C.ar    1  UNL1       -0.0042
     11 C          64.9386   83.0011   13.5777 C.ar    1  UNL1       -0.0003
     12 C          63.7708   82.0655   13.4734 C.ar    1  UNL1       -0.0000
     13 C          62.4604   82.4281   14.1069 C.ar    1  UNL1       -0.0003
     14 C          62.3178   83.7264   14.8446 C.ar    1  UNL1       -0.0042
     15 C          64.1379   89.8505   13.5690 C.3     1  UNL1        0.1943
     16 C          68.9285   94.2892   15.7132 C.3     1  UNL1        0.0307
     17 C          67.8634   93.4929   15.0194 C.ar    1  UNL1       -0.0242
     18 C          67.3283   93.9499   13.6948 C.ar    1  UNL1        0.0160
     19 C          66.2632   93.1535   13.0010 C.ar    1  UNL1        0.0970
     20 N          65.7282   93.6106   11.6762 N.ar    1  UNL1       -0.2374
     21 C          64.6630   92.8142   10.9824 C.ar    1  UNL1        0.1595
     22 C          64.1329   91.5609   11.6134 C.ar    1  UNL1        0.2806
     23 O          63.0678   90.7645   10.9196 O.2     1  UNL1       -0.2652
     24 N          64.6680   91.1039   12.9381 N.ar    1  UNL1       -0.2839
     25 C          65.7331   91.9002   13.6319 C.ar    1  UNL1        0.0803
     26 C          66.2681   91.4432   14.9566 C.ar    1  UNL1        0.0142
     27 C          67.3333   92.2395   15.6504 C.ar    1  UNL1       -0.0243
     28 C          67.8683   91.7825   16.9751 C.3     1  UNL1        0.0307
     29 C          64.0155   87.2555   13.5372 C.3     1  UNL1        0.0926
     30 N          62.9970   86.9815   12.4706 N.3     1  UNL1       -0.2670
     31 C          62.8569   85.5995   11.9046 C.3     1  UNL1        0.1047
     32 C          61.8384   85.3255   10.8380 C.3     1  UNL1        0.1595
     33 O          60.9599   86.4336   10.3376 O.3     1  UNL1       -0.3508
     34 C          61.0999   87.8156   10.9036 C.3     1  UNL1        0.1595
     35 C          62.1185   88.0895   11.9702 C.3     1  UNL1        0.1047
@<TRIPOS>BOND
     1    16    17    1
     2    17    18   ar
     3    18    19   ar
     4    19    20   ar
     5    20    21   ar
     6    21    22   ar
     7    22    23    2
     8    22    24   ar
     9    24    15    1
    10    15     1    1
    11     1     2    2
    12     1     3   am
    13     3     4    1
    14     4     5    1
    15     5     6    1
    16     6     7    1
    17     7     9    1
    18     9    10   ar
    19    10    11   ar
    20    11    12   ar
    21    12    13   ar
    22    13    14   ar
    23     7     8    1
    24     8    29    1
    25    29    30    1
    26    30    31    1
    27    31    32    1
    28    32    33    1
    29    33    34    1
    30    34    35    1
    31    24    25   ar
    32    25    26   ar
    33    26    27   ar
    34    27    28    1
    35    27    17   ar
    36    25    19   ar
    37     8     3    1
    38    35    30    1
    39    14     9   ar
@<TRIPOS>MOLECULE
*****
 35 39 0 0 0
SMALL
GASTEIGER

@<TRIPOS>ATOM
      1 C          64.2776   87.6079   14.2333 C.2     1  UNL1        0.2488
      2 O          65.0084   87.2445   15.4918 O.2     1  UNL1       -0.2728
      3 N          63.6516   86.5346   13.3930 N.am    1  UNL1       -0.2779
      4 C          63.7562   85.0979   13.8113 C.3     1  UNL1        0.0935
      5 C          63.1302   84.0246   12.9710 C.3     1  UNL1        0.0219
      6 C          62.3994   84.3880   11.7125 C.3     1  UNL1        0.0078
      7 C          62.2947   85.8246   11.2942 C.3     1  UNL1        0.0419
      8 C          62.9208   86.8980   12.1344 C.3     1  UNL1        0.0953
      9 C          61.5640   86.1880   10.0356 C.ar    1  UNL1       -0.0209
     10 C          62.1472   85.8319    8.7003 C.ar    1  UNL1       -0.0042
     11 C          61.4164   86.1953    7.4418 C.ar    1  UNL1       -0.0003
     12 C          60.1025   86.9148    7.5185 C.ar    1  UNL1       -0.0000
     13 C          59.5193   87.2709    8.8538 C.ar    1  UNL1       -0.0003
     14 C          60.2500   86.9076   10.1124 C.ar    1  UNL1       -0.0042
     15 C          64.1730   89.0447   13.8150 C.3     1  UNL1        0.1943
     16 C          69.0140   93.7337   15.1668 C.3     1  UNL1        0.0307
     17 C          67.8170   92.8333   15.0868 C.ar    1  UNL1       -0.0242
     18 C          66.6729   93.0202   16.0387 C.ar    1  UNL1        0.0160
     19 C          65.4759   92.1197   15.9588 C.ar    1  UNL1        0.0970
     20 N          64.3318   92.3067   16.9108 N.ar    1  UNL1       -0.2374
     21 C          63.1348   91.4062   16.8308 C.ar    1  UNL1        0.1595
     22 C          63.0819   90.3189   15.7988 C.ar    1  UNL1        0.2806
     23 O          61.8849   89.4184   15.7188 O.2     1  UNL1       -0.2652
     24 N          64.2259   90.1320   14.8469 N.ar    1  UNL1       -0.2839
     25 C          65.4229   91.0324   14.9269 C.ar    1  UNL1        0.0803
     26 C          66.5670   90.8455   13.9749 C.ar    1  UNL1        0.0142
     27 C          67.7640   91.7459   14.0549 C.ar    1  UNL1       -0.0243
     28 C          68.9081   91.5590   13.1029 C.3     1  UNL1        0.0307
     29 C          62.8161   88.3347   11.7161 C.3     1  UNL1        0.0926
     30 N          61.4851   89.0260   11.7341 N.3     1  UNL1       -0.2670
     31 C          61.2142   90.1564   10.7860 C.3     1  UNL1        0.1047
     32 C          59.8831   90.8477   10.8039 C.3     1  UNL1        0.1595
     33 O          58.8229   90.4086   11.7700 O.3     1  UNL1       -0.3508
     34 C          59.0938   89.2782   12.7181 C.3     1  UNL1        0.1595
     35 C          60.4249   88.5869   12.7001 C.3     1  UNL1        0.1047
@<TRIPOS>BOND
     1    16    17    1
     2    17    18   ar
     3    18    19   ar
     4    19    20   ar
     5    20    21   ar
     6    21    22   ar
     7    22    23    2
     8    22    24   ar
     9    24    15    1
    10    15     1    1
    11     1     2    2
    12     1     3   am
    13     3     4    1
    14     4     5    1
    15     5     6    1
    16     6     7    1
    17     7     9    1
    18     9    10   ar
    19    10    11   ar
    20    11    12   ar
    21    12    13   ar
    22    13    14   ar
    23     7     8    1
    24     8    29    1
    25    29    30    1
    26    30    31    1
    27    31    32    1
    28    32    33    1
    29    33    34    1
    30    34    35    1
    31    24    25   ar
    32    25    26   ar
    33    26    27   ar
    34    27    28    1
    35    27    17   ar
    36    25    19   ar
    37     8     3    1
    38    35    30    1
    39    14     9   ar
@<TRIPOS>MOLECULE
*****
 35 39 0 0 0
SMALL
GASTEIGER

@<TRIPOS>ATOM
      1 C          63.8825   87.8283   13.7863 C.2     1  UNL1        0.2488
      2 O          64.6303   87.5956   15.0656 O.2     1  UNL1       -0.2728
      3 N          63.3870   86.6616   12.9843 N.am    1  UNL1       -0.2779
      4 C          63.6392   85.2621   13.4617 C.3     1  UNL1        0.0935
      5 C          63.1436   84.0954   12.6597 C.3     1  UNL1        0.0219
      6 C          62.3958   84.3281   11.3804 C.3     1  UNL1        0.0078
      7 C          62.1436   85.7276   10.9030 C.3     1  UNL1        0.0419
      8 C          62.6392   86.8944   11.7050 C.3     1  UNL1        0.0953
      9 C          61.3959   85.9603    9.6237 C.ar    1  UNL1       -0.0209
     10 C          60.1293   86.7638    9.6308 C.ar    1  UNL1       -0.0042
     11 C          59.3815   86.9966    8.3515 C.ar    1  UNL1       -0.0003
     12 C          59.9003   86.4258    7.0650 C.ar    1  UNL1       -0.0000
     13 C          61.1670   85.6223    7.0578 C.ar    1  UNL1       -0.0003
     14 C          61.9148   85.3895    8.3372 C.ar    1  UNL1       -0.0042
     15 C          63.6303   89.2278   13.3089 C.3     1  UNL1        0.1943
     16 C          67.0297   94.8345   11.2452 C.3     1  UNL1        0.0307
     17 C          66.3137   93.7242   11.9555 C.ar    1  UNL1       -0.0242
     18 C          66.1331   93.7795   13.4435 C.ar    1  UNL1        0.0160
     19 C          65.4170   92.6692   14.1539 C.ar    1  UNL1        0.0970
     20 N          65.2364   92.7246   15.6420 N.ar    1  UNL1       -0.2374
     21 C          64.5204   91.6143   16.3524 C.ar    1  UNL1        0.1595
     22 C          63.9850   90.4487   15.5746 C.ar    1  UNL1        0.2806
     23 O          63.2690   89.3384   16.2850 O.2     1  UNL1       -0.2652
     24 N          64.1657   90.3934   14.0866 N.ar    1  UNL1       -0.2839
     25 C          64.8817   91.5037   13.3762 C.ar    1  UNL1        0.0803
     26 C          65.0623   91.4484   11.8882 C.ar    1  UNL1        0.0142
     27 C          65.7784   92.5587   11.1779 C.ar    1  UNL1       -0.0243
     28 C          65.9590   92.5033    9.6898 C.3     1  UNL1        0.0307
     29 C          62.3870   88.2938   11.2276 C.3     1  UNL1        0.0926
     30 N          61.0777   88.9629   11.5243 N.3     1  UNL1       -0.2670
     31 C          60.0962   88.3119   12.4532 C.3     1  UNL1        0.1047
     32 C          58.7869   88.9810   12.7499 C.3     1  UNL1        0.1595
     33 O          58.4591   90.3012   12.1176 O.3     1  UNL1       -0.3508
     34 C          59.4405   90.9521   11.1887 C.3     1  UNL1        0.1595
     35 C          60.7498   90.2830   10.8920 C.3     1  UNL1        0.1047
@<TRIPOS>BOND
     1    16    17    1
     2    17    18   ar
     3    18    19   ar
     4    19    20   ar
     5    20    21   ar
     6    21    22   ar
     7    22    23    2
     8    22    24   ar
     9    24    15    1
    10    15     1    1
    11     1     2    2
    12     1     3   am
    13     3     4    1
    14     4     5    1
    15     5     6    1
    16     6     7    1
    17     7     9    1
    18     9    10   ar
    19    10    11   ar
    20    11    12   ar
    21    12    13   ar
    22    13    14   ar
    23     7     8    1
    24     8    29    1
    25    29    30    1
    26    30    31    1
    27    31    32    1
    28    32    33    1
    29    33    34    1
    30    34    35    1
    31    24    25   ar
    32    25    26   ar
    33    26    27   ar
    34    27    28    1
    35    27    17   ar
    36    25    19   ar
    37     8     3    1
    38    35    30    1
    39    14     9   ar
@<TRIPOS>MOLECULE
*****
 35 39 0 0 0
SMALL
GASTEIGER

@<TRIPOS>ATOM
      1 C          63.8063   89.0668   13.6383 C.2     1  UNL1        0.2488
      2 O          64.5766   89.1791   14.9206 O.2     1  UNL1       -0.2728
      3 N          63.5349   87.7174   13.0423 N.am    1  UNL1       -0.2779
      4 C          64.0337   86.4802   13.7284 C.3     1  UNL1        0.0935
      5 C          63.7622   85.1308   13.1323 C.3     1  UNL1        0.0219
      6 C          62.9920   85.0184   11.8501 C.3     1  UNL1        0.0078
      7 C          62.4932   86.2555   11.1639 C.3     1  UNL1        0.0419
      8 C          62.7647   87.6050   11.7600 C.3     1  UNL1        0.0953
      9 C          61.7230   86.1431    9.8817 C.ar    1  UNL1       -0.0209
     10 C          62.3559   85.5066    8.6799 C.ar    1  UNL1       -0.0042
     11 C          61.5857   85.3943    7.3977 C.ar    1  UNL1       -0.0003
     12 C          60.1826   85.9184    7.3172 C.ar    1  UNL1       -0.0000
     13 C          59.5496   86.5550    8.5190 C.ar    1  UNL1       -0.0003
     14 C          60.3199   86.6673    9.8012 C.ar    1  UNL1       -0.0042
     15 C          63.3076   90.3039   12.9522 C.3     1  UNL1        0.1943
     16 C          68.2503   94.0393   15.9297 C.3     1  UNL1        0.0307
     17 C          67.2585   93.3505   15.0399 C.ar    1  UNL1       -0.0242
     18 C          67.2419   93.6417   13.5685 C.ar    1  UNL1        0.0160
     19 C          66.2501   92.9528   12.6788 C.ar    1  UNL1        0.0970
     20 N          66.2336   93.2440   11.2074 N.ar    1  UNL1       -0.2374
     21 C          65.2417   92.5552   10.3176 C.ar    1  UNL1        0.1595
     22 C          64.2663   91.5751   10.8992 C.ar    1  UNL1        0.2806
     23 O          63.2745   90.8862   10.0095 O.2     1  UNL1       -0.2652
     24 N          64.2829   91.2839   12.3706 N.ar    1  UNL1       -0.2839
     25 C          65.2748   91.9728   13.2604 C.ar    1  UNL1        0.0803
     26 C          65.2913   91.6816   14.7317 C.ar    1  UNL1        0.0142
     27 C          66.2832   92.3705   15.6215 C.ar    1  UNL1       -0.0243
     28 C          66.2997   92.0793   17.0929 C.3     1  UNL1        0.0307
     29 C          62.2659   88.8421   11.0738 C.3     1  UNL1        0.0926
     30 N          60.9108   89.3909   11.4089 N.3     1  UNL1       -0.2670
     31 C          60.4573   90.6881   10.8073 C.3     1  UNL1        0.1047
     32 C          59.1021   91.2370   11.1424 C.3     1  UNL1        0.1595
     33 O          58.2004   90.4887   12.0790 O.3     1  UNL1       -0.3508
     34 C          58.6539   89.1916   12.6805 C.3     1  UNL1        0.1595
     35 C          60.0091   88.6427   12.3454 C.3     1  UNL1        0.1047
@<TRIPOS>BOND
     1    16    17    1
     2    17    18   ar
     3    18    19   ar
     4    19    20   ar
     5    20    21   ar
     6    21    22   ar
     7    22    23    2
     8    22    24   ar
     9    24    15    1
    10    15     1    1
    11     1     2    2
    12     1     3   am
    13     3     4    1
    14     4     5    1
    15     5     6    1
    16     6     7    1
    17     7     9    1
    18     9    10   ar
    19    10    11   ar
    20    11    12   ar
    21    12    13   ar
    22    13    14   ar
    23     7     8    1
    24     8    29    1
    25    29    30    1
    26    30    31    1
    27    31    32    1
    28    32    33    1
    29    33    34    1
    30    34    35    1
    31    24    25   ar
    32    25    26   ar
    33    26    27   ar
    34    27    28    1
    35    27    17   ar
    36    25    19   ar
    37     8     3    1
    38    35    30    1
    39    14     9   ar
@<TRIPOS>MOLECULE
*****
 35 39 0 0 0
SMALL
GASTEIGER

@<TRIPOS>ATOM
      1 C          63.0412   90.3039   13.8036 C.2     1  UNL1        0.2488
      2 O          61.6278   89.8932   14.0929 O.2     1  UNL1       -0.2728
      3 N          63.8555   90.9868   14.8621 N.am    1  UNL1       -0.2779
      4 C          63.2563   91.2590   16.2101 C.3     1  UNL1        0.0935
      5 C          64.0706   91.9419   17.2687 C.3     1  UNL1        0.0219
      6 C          65.4840   92.3525   16.9794 C.3     1  UNL1        0.0078
      7 C          66.0831   92.0803   15.6315 C.3     1  UNL1        0.0419
      8 C          65.2689   91.3974   14.5728 C.3     1  UNL1        0.0953
      9 C          67.4965   92.4910   15.3421 C.ar    1  UNL1       -0.0209
     10 C          68.3434   91.6656   14.4194 C.ar    1  UNL1       -0.0042
     11 C          69.7568   92.0762   14.1301 C.ar    1  UNL1       -0.0003
     12 C          70.3233   93.3122   14.7635 C.ar    1  UNL1       -0.0000
     13 C          69.4764   94.1377   15.6863 C.ar    1  UNL1       -0.0003
     14 C          68.0630   93.7271   15.9756 C.ar    1  UNL1       -0.0042
     15 C          63.6403   90.0316   12.4556 C.3     1  UNL1        0.1943
     16 C          62.6499   83.2313   12.2997 C.3     1  UNL1        0.0307
     17 C          62.7148   84.7155   12.0924 C.ar    1  UNL1       -0.0242
     18 C          62.0490   85.3361   10.9002 C.ar    1  UNL1        0.0160
     19 C          62.1139   86.8203   10.6929 C.ar    1  UNL1        0.0970
     20 N          61.4480   87.4409    9.5006 N.ar    1  UNL1       -0.2374
     21 C          61.5129   88.9251    9.2933 C.ar    1  UNL1        0.1595
     22 C          62.2437   89.7887   10.2784 C.ar    1  UNL1        0.2806
     23 O          62.3087   91.2729   10.0711 O.2     1  UNL1       -0.2652
     24 N          62.9096   89.1681   11.4706 N.ar    1  UNL1       -0.2839
     25 C          62.8447   87.6839   11.6779 C.ar    1  UNL1        0.0803
     26 C          63.5105   87.0632   12.8701 C.ar    1  UNL1        0.0142
     27 C          63.4456   85.5790   13.0774 C.ar    1  UNL1       -0.0243
     28 C          64.1115   84.9584   14.2697 C.3     1  UNL1        0.0307
     29 C          65.8680   91.1252   13.2249 C.3     1  UNL1        0.0926
     30 N          66.2378   92.2662   12.3242 N.3     1  UNL1       -0.2670
     31 C          65.8573   93.6688   12.6958 C.3     1  UNL1        0.1047
     32 C          66.2272   94.8099   11.7951 C.3     1  UNL1        0.1595
     33 O          66.9774   94.5483   10.5228 O.3     1  UNL1       -0.3508
     34 C          67.3578   93.1457   10.1512 C.3     1  UNL1        0.1595
     35 C          66.9880   92.0047   11.0519 C.3     1  UNL1        0.1047
@<TRIPOS>BOND
     1    16    17    1
     2    17    18   ar
     3    18    19   ar
     4    19    20   ar
     5    20    21   ar
     6    21    22   ar
     7    22    23    2
     8    22    24   ar
     9    24    15    1
    10    15     1    1
    11     1     2    2
    12     1     3   am
    13     3     4    1
    14     4     5    1
    15     5     6    1
    16     6     7    1
    17     7     9    1
    18     9    10   ar
    19    10    11   ar
    20    11    12   ar
    21    12    13   ar
    22    13    14   ar
    23     7     8    1
    24     8    29    1
    25    29    30    1
    26    30    31    1
    27    31    32    1
    28    32    33    1
    29    33    34    1
    30    34    35    1
    31    24    25   ar
    32    25    26   ar
    33    26    27   ar
    34    27    28    1
    35    27    17   ar
    36    25    19   ar
    37     8     3    1
    38    35    30    1
    39    14     9   ar
