@<TRIPOS>MOLECULE
*****
 47 50 0 0 0
SMALL
GASTEIGER

@<TRIPOS>ATOM
      1 N          63.4410   85.5850   13.8480 N.pl3   1  UNL1       -0.3043
      2 C          63.0448   85.8137   15.2766 C.3     1  UNL1        0.1123
      3 C          63.2072   87.1721   15.8917 C.3     1  UNL1        0.1149
      4 N          63.7658   88.3019   15.0783 N.am    1  UNL1       -0.2747
      5 C          63.9282   89.6603   15.6934 C.2     1  UNL1        0.2442
      6 O          63.5320   89.8889   17.1219 O.2     1  UNL1       -0.2731
      7 C          64.1620   88.0732   13.6497 C.3     1  UNL1        0.1149
      8 C          63.9996   86.7147   13.0346 C.3     1  UNL1        0.1123
      9 C          62.6788   84.0895   11.8649 C.ar    1  UNL1        0.0053
     10 C          62.5165   82.7311   11.2499 C.ar    1  UNL1        0.0021
     11 C          62.9538   81.5098   12.0029 C.ar    1  UNL1        0.0712
     12 C          63.5536   81.6468   13.3709 C.ar    1  UNL1        0.0051
     13 C          63.7160   83.0052   13.9859 C.ar    1  UNL1        0.0142
     14 C          63.2786   84.2266   13.2329 C.ar    1  UNL1        0.0451
     15 C          62.7914   80.1513   11.3878 C.3     1  UNL1        0.4186
     16 F          62.6290   78.7929   10.7727 F       1  UNL1       -0.1659
     17 F          63.1451   80.7173   10.0445 F       1  UNL1       -0.1659
     18 F          62.4377   79.5853   12.7311 F       1  UNL1       -0.1659
     19 C          62.2414   85.3109   11.1120 C.3     1  UNL1        0.0780
     20 N          61.1692   86.1955   11.6756 N.3     1  UNL1       -0.2950
     21 H          61.2607   86.1589   12.6908 H       1  UNL1        0.1235
     22 C          61.1179   87.6461   11.2975 C.3     1  UNL1        0.0702
     23 C          59.7955   88.3448   11.1818 C.3     1  UNL1        0.0339
     24 C          59.4893   89.5209   12.0610 C.3     1  UNL1        0.0666
     25 N          59.4121   90.8980   11.4715 N.3     1  UNL1       -0.3211
     26 H          60.3331   91.1744   11.1314 H       1  UNL1        0.1189
     27 H          59.1016   91.5567   12.1858 H       1  UNL1        0.1189
     28 C          62.8763   85.6477    9.7954 C.3     1  UNL1        0.0203
     29 C          60.6956   86.0067    8.4294 C.3     1  UNL1        0.0001
     30 C          62.0982   85.4832    8.5236 C.3     1  UNL1        0.0017
     31 C          62.7226   84.7952    7.3460 C.3     1  UNL1        0.0001
     32 C          64.4868   90.7900   14.8799 C.3     1  UNL1        0.1564
     33 N          65.7672   91.4518   15.2953 N.am    1  UNL1       -0.2727
     34 C          67.1219   91.2016   14.7020 C.3     1  UNL1        0.0943
     35 C          68.1097   92.0752   15.4170 C.3     1  UNL1        0.0311
     36 C          67.3654   92.8653   16.4522 C.3     1  UNL1        0.0870
     37 C          65.9176   92.4801   16.3771 C.2     1  UNL1        0.2260
     38 O          64.8142   93.0271   17.2332 O.2     1  UNL1       -0.2749
     39 C          63.7650   91.2579   13.6510 C.3     1  UNL1        0.0564
     40 C          64.5188   91.9578   12.5593 C.ar    1  UNL1       -0.0094
     41 C          65.5456   92.9958   12.9033 C.ar    1  UNL1       -0.0025
     42 C          66.2995   93.6957   11.8116 C.ar    1  UNL1        0.0111
     43 C          66.0265   93.3576   10.3759 C.ar    1  UNL1        0.0585
     44 CL         66.7803   94.0575    9.2841 Cl      1  UNL1       -0.0822
     45 C          64.9997   92.3197   10.0319 C.ar    1  UNL1        0.0225
     46 C          64.2458   91.6198   11.1236 C.ar    1  UNL1        0.0546
     47 CL         63.2191   90.5818   10.7797 Cl      1  UNL1       -0.0825
@<TRIPOS>BOND
     1    29    30    1
     2    30    31    1
     3    30    28    1
     4    19    28    1
     5    19    20    1
     6    20    22    1
     7    22    23    1
     8    23    24    1
     9    24    25    1
    10    19     9    1
    11     9    10   ar
    12    10    11   ar
    13    11    15    1
    14    15    16    1
    15    15    17    1
    16    15    18    1
    17    11    12   ar
    18    12    13   ar
    19    13    14   ar
    20    14     1    1
    21     1     2    1
    22     2     3    1
    23     3     4    1
    24     4     5   am
    25     5     6    2
    26     5    32    1
    27    32    39    1
    28    39    40    1
    29    40    41   ar
    30    41    42   ar
    31    42    43   ar
    32    43    44    1
    33    43    45   ar
    34    45    46   ar
    35    46    47    1
    36    32    33    1
    37    33    34    1
    38    34    35    1
    39    35    36    1
    40    36    37    1
    41    37    38    2
    42     4     7    1
    43     7     8    1
    44    14     9   ar
    45     8     1    1
    46    46    40   ar
    47    37    33   am
    48    20    21    1
    49    25    26    1
    50    25    27    1
@<TRIPOS>MOLECULE
*****
 47 50 0 0 0
SMALL
GASTEIGER

@<TRIPOS>ATOM
      1 N          63.3925   85.7755   14.3320 N.pl3   1  UNL1       -0.3043
      2 C          62.8992   86.1954   15.6849 C.3     1  UNL1        0.1123
      3 C          63.0828   87.6116   16.1438 C.3     1  UNL1        0.1149
      4 N          63.7596   88.6080   15.2498 N.am    1  UNL1       -0.2747
      5 C          63.9431   90.0242   15.7087 C.2     1  UNL1        0.2442
      6 O          63.4499   90.4440   17.0617 O.2     1  UNL1       -0.2731
      7 C          64.2528   88.1881   13.8969 C.3     1  UNL1        0.1149
      8 C          64.0692   86.7718   13.4379 C.3     1  UNL1        0.1123
      9 C          62.6957   84.0789   12.4918 C.ar    1  UNL1        0.0053
     10 C          62.5121   82.6627   12.0329 C.ar    1  UNL1        0.0021
     11 C          62.8418   81.5268   12.9554 C.ar    1  UNL1        0.0712
     12 C          63.3550   81.8070   14.3367 C.ar    1  UNL1        0.0051
     13 C          63.5386   83.2232   14.7955 C.ar    1  UNL1        0.0142
     14 C          63.2089   84.3592   13.8731 C.ar    1  UNL1        0.0451
     15 C          62.6582   80.1105   12.4965 C.3     1  UNL1        0.4186
     16 F          62.4747   78.6942   12.0376 F       1  UNL1       -0.1659
     17 F          62.4934   79.6703   13.9209 F       1  UNL1       -0.1659
     18 F          62.8231   80.5506   11.0720 F       1  UNL1       -0.1659
     19 C          62.3660   85.2149   11.5693 C.3     1  UNL1        0.0780
     20 N          61.1334   86.0371   11.8027 N.3     1  UNL1       -0.2950
     21 H          61.2743   86.5361   12.6811 H       1  UNL1        0.1235
     22 C          60.7092   87.0574   10.7884 C.3     1  UNL1        0.0702
     23 C          60.4791   86.6481    9.3637 C.3     1  UNL1        0.0339
     24 C          59.5430   87.4384    8.4982 C.3     1  UNL1        0.0666
     25 N          58.3652   86.7656    7.8579 N.3     1  UNL1       -0.3211
     26 H          58.6934   86.0826    7.1751 H       1  UNL1        0.1189
     27 H          57.7878   87.4640    7.3897 H       1  UNL1        0.1189
     28 C          63.2690   85.5286   10.4134 C.3     1  UNL1        0.0203
     29 C          64.2019   83.2489    9.5872 C.3     1  UNL1        0.0001
     30 C          63.4594   84.5238    9.3161 C.3     1  UNL1        0.0017
     31 C          62.9074   84.7937    7.9478 C.3     1  UNL1        0.0001
     32 C          64.6198   91.0205   14.8147 C.3     1  UNL1        0.1564
     33 N          65.9451   91.6026   15.2082 N.am    1  UNL1       -0.2727
     34 C          67.2609   91.3295   14.5419 C.3     1  UNL1        0.0943
     35 C          68.3162   92.1181   15.2590 C.3     1  UNL1        0.0311
     36 C          67.6527   92.8787   16.3687 C.3     1  UNL1        0.0870
     37 C          66.1872   92.5601   16.3373 C.2     1  UNL1        0.2260
     38 O          65.1466   93.1034   17.2710 O.2     1  UNL1       -0.2749
     39 C          63.9714   91.4347   13.5271 C.3     1  UNL1        0.0564
     40 C          64.7452   92.2338   12.5207 C.ar    1  UNL1       -0.0094
     41 C          65.7169   93.2799   12.9807 C.ar    1  UNL1       -0.0025
     42 C          66.4907   94.0790   11.9744 C.ar    1  UNL1        0.0111
     43 C          66.2928   93.8320   10.5081 C.ar    1  UNL1        0.0585
     44 CL         67.0666   94.6311    9.5018 Cl      1  UNL1       -0.0822
     45 C          65.3211   92.7859   10.0482 C.ar    1  UNL1        0.0225
     46 C          64.5473   91.9869   11.0545 C.ar    1  UNL1        0.0546
     47 CL         63.5756   90.9408   10.5947 Cl      1  UNL1       -0.0825
@<TRIPOS>BOND
     1    29    30    1
     2    30    31    1
     3    30    28    1
     4    19    28    1
     5    19    20    1
     6    20    22    1
     7    22    23    1
     8    23    24    1
     9    24    25    1
    10    19     9    1
    11     9    10   ar
    12    10    11   ar
    13    11    15    1
    14    15    16    1
    15    15    17    1
    16    15    18    1
    17    11    12   ar
    18    12    13   ar
    19    13    14   ar
    20    14     1    1
    21     1     2    1
    22     2     3    1
    23     3     4    1
    24     4     5   am
    25     5     6    2
    26     5    32    1
    27    32    39    1
    28    39    40    1
    29    40    41   ar
    30    41    42   ar
    31    42    43   ar
    32    43    44    1
    33    43    45   ar
    34    45    46   ar
    35    46    47    1
    36    32    33    1
    37    33    34    1
    38    34    35    1
    39    35    36    1
    40    36    37    1
    41    37    38    2
    42     4     7    1
    43     7     8    1
    44    14     9   ar
    45     8     1    1
    46    46    40   ar
    47    37    33   am
    48    20    21    1
    49    25    26    1
    50    25    27    1
@<TRIPOS>MOLECULE
*****
 47 50 0 0 0
SMALL
GASTEIGER

@<TRIPOS>ATOM
      1 N          64.2118   90.8793   12.5404 N.pl3   1  UNL1       -0.3043
      2 C          63.1996   91.5789   11.6825 C.3     1  UNL1        0.1123
      3 C          62.2344   90.7797   10.8581 C.3     1  UNL1        0.1149
      4 N          62.2815   89.2808   10.8915 N.am    1  UNL1       -0.2747
      5 C          61.3163   88.4816   10.0671 C.2     1  UNL1        0.2442
      6 O          60.3041   89.1813    9.2092 O.2     1  UNL1       -0.2731
      7 C          63.2936   88.5811   11.7494 C.3     1  UNL1        0.1149
      8 C          64.2588   89.3804   12.5738 C.3     1  UNL1        0.1123
      9 C          65.9957   92.7592   12.7233 C.ar    1  UNL1        0.0053
     10 C          66.9608   93.5584   13.5477 C.ar    1  UNL1        0.0021
     11 C          67.1072   93.2770   15.0138 C.ar    1  UNL1        0.0712
     12 C          66.2884   92.1963   15.6554 C.ar    1  UNL1        0.0051
     13 C          65.3233   91.3971   14.8309 C.ar    1  UNL1        0.0142
     14 C          65.1769   91.6785   13.3649 C.ar    1  UNL1        0.0451
     15 C          68.0723   94.0762   15.8383 C.3     1  UNL1        0.4186
     16 F          69.0375   94.8754   16.6627 F       1  UNL1       -0.1659
     17 F          68.3081   92.8842   16.7177 F       1  UNL1       -0.1659
     18 F          67.8365   95.2682   14.9588 F       1  UNL1       -0.1659
     19 C          65.8493   93.0407   11.2572 C.3     1  UNL1        0.0780
     20 N          65.0652   94.2338   10.7972 N.3     1  UNL1       -0.2950
     21 H          64.2085   94.2543   11.3504 H       1  UNL1        0.1235
     22 C          65.6676   95.6049   10.8809 C.3     1  UNL1        0.0702
     23 C          67.0683   95.8395   10.3982 C.3     1  UNL1        0.0339
     24 C          67.3491   95.9329    8.9276 C.3     1  UNL1        0.0666
     25 N          66.4830   95.1947    7.9504 N.3     1  UNL1       -0.3211
     26 H          66.6006   94.1902    8.0832 H       1  UNL1        0.1189
     27 H          66.7531   95.4458    6.9994 H       1  UNL1        0.1189
     28 C          66.4871   92.1291   10.2511 C.3     1  UNL1        0.0203
     29 C          68.7741   91.5515   11.3404 C.3     1  UNL1        0.0001
     30 C          67.9818   92.0378   10.1632 C.3     1  UNL1        0.0017
     31 C          68.6841   92.4329    8.8980 C.3     1  UNL1        0.0001
     32 C          61.3634   86.9827   10.1005 C.3     1  UNL1        0.1564
     33 N          61.4896   86.2076    8.8225 N.am    1  UNL1       -0.2727
     34 C          62.7372   85.5528    8.3081 C.3     1  UNL1        0.0943
     35 C          62.4091   84.8917    7.0022 C.3     1  UNL1        0.0311
     36 C          60.9587   85.1380    6.7095 C.3     1  UNL1        0.0870
     37 C          60.3904   85.9513    7.8345 C.2     1  UNL1        0.2260
     38 O          58.9720   86.4250    7.9511 O.2     1  UNL1       -0.2749
     39 C          61.2842   86.2589   11.4120 C.3     1  UNL1        0.0564
     40 C          62.1766   85.0822   11.6742 C.ar    1  UNL1       -0.0094
     41 C          62.0974   83.8700   10.7942 C.ar    1  UNL1       -0.0025
     42 C          62.9899   82.6932   11.0565 C.ar    1  UNL1        0.0111
     43 C          63.9616   82.7287   12.1987 C.ar    1  UNL1        0.0585
     44 CL         64.8541   81.5520   12.4610 Cl      1  UNL1       -0.0822
     45 C          64.0408   83.9409   13.0786 C.ar    1  UNL1        0.0225
     46 C          63.1483   85.1176   12.8164 C.ar    1  UNL1        0.0546
     47 CL         63.2274   86.3298   13.6963 Cl      1  UNL1       -0.0825
@<TRIPOS>BOND
     1    29    30    1
     2    30    31    1
     3    30    28    1
     4    19    28    1
     5    19    20    1
     6    20    22    1
     7    22    23    1
     8    23    24    1
     9    24    25    1
    10    19     9    1
    11     9    10   ar
    12    10    11   ar
    13    11    15    1
    14    15    16    1
    15    15    17    1
    16    15    18    1
    17    11    12   ar
    18    12    13   ar
    19    13    14   ar
    20    14     1    1
    21     1     2    1
    22     2     3    1
    23     3     4    1
    24     4     5   am
    25     5     6    2
    26     5    32    1
    27    32    39    1
    28    39    40    1
    29    40    41   ar
    30    41    42   ar
    31    42    43   ar
    32    43    44    1
    33    43    45   ar
    34    45    46   ar
    35    46    47    1
    36    32    33    1
    37    33    34    1
    38    34    35    1
    39    35    36    1
    40    36    37    1
    41    37    38    2
    42     4     7    1
    43     7     8    1
    44    14     9   ar
    45     8     1    1
    46    46    40   ar
    47    37    33   am
    48    20    21    1
    49    25    26    1
    50    25    27    1
@<TRIPOS>MOLECULE
*****
 47 50 0 0 0
SMALL
GASTEIGER

@<TRIPOS>ATOM
      1 N          62.7996   89.6935   11.8852 N.pl3   1  UNL1       -0.3043
      2 C          62.3994   89.7186   13.3306 C.3     1  UNL1        0.1123
      3 C          63.1459   90.5856   14.3006 C.3     1  UNL1        0.1149
      4 N          64.2928   91.4276   13.8252 N.am    1  UNL1       -0.2747
      5 C          65.0393   92.2946   14.7951 C.2     1  UNL1        0.2442
      6 O          64.6391   92.3198   16.2405 O.2     1  UNL1       -0.2731
      7 C          64.6930   91.4025   12.3798 C.3     1  UNL1        0.1149
      8 C          63.9464   90.5354   11.4098 C.3     1  UNL1        0.1123
      9 C          62.0407   87.3374   11.0959 C.ar    1  UNL1        0.0053
     10 C          61.2942   86.4704   10.1259 C.ar    1  UNL1        0.0021
     11 C          60.5598   87.0923    8.9753 C.ar    1  UNL1        0.0712
     12 C          60.5721   88.5813    8.7947 C.ar    1  UNL1        0.0051
     13 C          61.3187   89.4484    9.7646 C.ar    1  UNL1        0.0142
     14 C          62.0530   88.8264   10.9152 C.ar    1  UNL1        0.0451
     15 C          59.8132   86.2252    8.0053 C.3     1  UNL1        0.4186
     16 F          59.0667   85.3582    7.0354 F       1  UNL1       -0.1659
     17 F          61.1053   85.6000    7.5698 F       1  UNL1       -0.1659
     18 F          58.5212   86.8504    8.4409 F       1  UNL1       -0.1659
     19 C          62.7750   86.7154   12.2465 C.3     1  UNL1        0.0780
     20 N          63.7342   87.5367   13.0561 N.3     1  UNL1       -0.2950
     21 H          63.2222   88.3600   13.3730 H       1  UNL1        0.1235
     22 C          64.3930   86.9440   14.2664 C.3     1  UNL1        0.0702
     23 C          63.7998   87.1640   15.6265 C.3     1  UNL1        0.0339
     24 C          63.3334   85.9929   16.4396 C.3     1  UNL1        0.0666
     25 N          62.0024   86.0413   17.1295 N.3     1  UNL1       -0.3211
     26 H          62.0219   86.7567   17.8562 H       1  UNL1        0.1189
     27 H          61.8047   85.1338   17.5510 H       1  UNL1        0.1189
     28 C          62.5502   85.2721   12.5875 C.3     1  UNL1        0.0203
     29 C          64.4496   83.5562   13.0325 C.3     1  UNL1        0.0001
     30 C          63.4997   84.2257   12.0840 C.3     1  UNL1        0.0017
     31 C          63.4994   83.8489   10.6322 C.3     1  UNL1        0.0001
     32 C          66.1861   93.1365   14.3197 C.3     1  UNL1        0.1564
     33 N          67.4730   93.1550   15.0901 N.am    1  UNL1       -0.2727
     34 C          68.2402   94.3784   15.4960 C.3     1  UNL1        0.0943
     35 C          69.4600   93.9328   16.2467 C.3     1  UNL1        0.0311
     36 C          69.4467   92.4339   16.3048 C.3     1  UNL1        0.0870
     37 C          68.2187   91.9532   15.5900 C.2     1  UNL1        0.2260
     38 O          67.8084   90.5221   15.4072 O.2     1  UNL1       -0.2749
     39 C          66.0460   93.9600   13.0738 C.3     1  UNL1        0.0564
     40 C          66.7640   93.5532   11.8212 C.ar    1  UNL1       -0.0094
     41 C          67.6223   92.3230   11.8146 C.ar    1  UNL1       -0.0025
     42 C          68.3403   91.9161   10.5620 C.ar    1  UNL1        0.0111
     43 C          68.2001   92.7395    9.3160 C.ar    1  UNL1        0.0585
     44 CL         68.9181   92.3327    8.0635 Cl      1  UNL1       -0.0822
     45 C          67.3418   93.9697    9.3227 C.ar    1  UNL1        0.0225
     46 C          66.6238   94.3765   10.5752 C.ar    1  UNL1        0.0546
     47 CL         65.7656   95.6067   10.5819 Cl      1  UNL1       -0.0825
@<TRIPOS>BOND
     1    29    30    1
     2    30    31    1
     3    30    28    1
     4    19    28    1
     5    19    20    1
     6    20    22    1
     7    22    23    1
     8    23    24    1
     9    24    25    1
    10    19     9    1
    11     9    10   ar
    12    10    11   ar
    13    11    15    1
    14    15    16    1
    15    15    17    1
    16    15    18    1
    17    11    12   ar
    18    12    13   ar
    19    13    14   ar
    20    14     1    1
    21     1     2    1
    22     2     3    1
    23     3     4    1
    24     4     5   am
    25     5     6    2
    26     5    32    1
    27    32    39    1
    28    39    40    1
    29    40    41   ar
    30    41    42   ar
    31    42    43   ar
    32    43    44    1
    33    43    45   ar
    34    45    46   ar
    35    46    47    1
    36    32    33    1
    37    33    34    1
    38    34    35    1
    39    35    36    1
    40    36    37    1
    41    37    38    2
    42     4     7    1
    43     7     8    1
    44    14     9   ar
    45     8     1    1
    46    46    40   ar
    47    37    33   am
    48    20    21    1
    49    25    26    1
    50    25    27    1
@<TRIPOS>MOLECULE
*****
 47 50 0 0 0
SMALL
GASTEIGER

@<TRIPOS>ATOM
      1 N          63.3965   87.0309   12.8900 N.pl3   1  UNL1       -0.3043
      2 C          62.7067   87.8702   11.8557 C.3     1  UNL1        0.1123
      3 C          63.0417   89.3265   11.7263 C.3     1  UNL1        0.1149
      4 N          64.0667   89.9436   12.6312 N.am    1  UNL1       -0.2747
      5 C          64.4017   91.3999   12.5018 C.2     1  UNL1        0.2442
      6 O          63.7119   92.2392   11.4675 O.2     1  UNL1       -0.2731
      7 C          64.7565   89.1043   13.6655 C.3     1  UNL1        0.1149
      8 C          64.4213   87.6479   13.7949 C.3     1  UNL1        0.1123
      9 C          62.3141   84.8764   11.9220 C.ar    1  UNL1        0.0053
     10 C          61.9790   83.4201   12.0514 C.ar    1  UNL1        0.0021
     11 C          62.3912   82.6618   13.2782 C.ar    1  UNL1        0.0712
     12 C          63.1385   83.3598   14.3756 C.ar    1  UNL1        0.0051
     13 C          63.4735   84.8161   14.2462 C.ar    1  UNL1        0.0142
     14 C          63.0614   85.5745   13.0194 C.ar    1  UNL1        0.0451
     15 C          62.0561   81.2054   13.4076 C.3     1  UNL1        0.4186
     16 F          61.7210   79.7491   13.5369 F       1  UNL1       -0.1659
     17 F          63.0202   80.8856   12.3039 F       1  UNL1       -0.1659
     18 F          61.0920   81.5252   14.5113 F       1  UNL1       -0.1659
     19 C          61.9019   85.6348   10.6952 C.3     1  UNL1        0.0780
     20 N          60.5257   86.2247   10.6052 N.3     1  UNL1       -0.2950
     21 H          60.2919   86.5698   11.5361 H       1  UNL1        0.1235
     22 C          60.2513   87.3451    9.6464 C.3     1  UNL1        0.0702
     23 C          59.7047   87.0474    8.2815 C.3     1  UNL1        0.0339
     24 C          59.1163   88.1502    7.4523 C.3     1  UNL1        0.0666
     25 N          59.7933   89.4874    7.3936 N.3     1  UNL1       -0.3211
     26 H          59.7573   89.9274    8.3131 H       1  UNL1        0.1189
     27 H          59.3168   90.0803    6.7141 H       1  UNL1        0.1189
     28 C          62.8658   85.8031    9.5584 C.3     1  UNL1        0.0203
     29 C          64.0358   83.4991    9.2889 C.3     1  UNL1        0.0001
     30 C          63.2338   84.6248    8.7062 C.3     1  UNL1        0.0017
     31 C          62.7997   84.5722    7.2714 C.3     1  UNL1        0.0001
     32 C          65.4266   92.0170   13.4067 C.3     1  UNL1        0.1564
     33 N          65.1695   92.1037   14.8819 N.am    1  UNL1       -0.2727
     34 C          63.9596   91.5814   15.5983 C.3     1  UNL1        0.0943
     35 C          64.1194   91.8829   17.0590 C.3     1  UNL1        0.0311
     36 C          65.4282   92.5916   17.2454 C.3     1  UNL1        0.0870
     37 C          66.0773   92.7282   15.8999 C.2     1  UNL1        0.2260
     38 O          67.4014   93.3754   15.6213 O.2     1  UNL1       -0.2749
     39 C          66.7086   92.5473   12.8363 C.3     1  UNL1        0.0564
     40 C          66.6754   93.5464   11.7181 C.ar    1  UNL1       -0.0094
     41 C          66.0505   94.8930   11.9338 C.ar    1  UNL1       -0.0025
     42 C          66.0172   95.8921   10.8155 C.ar    1  UNL1        0.0111
     43 C          66.6088   95.5448    9.4815 C.ar    1  UNL1        0.0585
     44 CL         66.5755   96.5439    8.3632 Cl      1  UNL1       -0.0822
     45 C          67.2336   94.1983    9.2658 C.ar    1  UNL1        0.0225
     46 C          67.2669   93.1991   10.3841 C.ar    1  UNL1        0.0546
     47 CL         67.8917   91.8526   10.1685 Cl      1  UNL1       -0.0825
@<TRIPOS>BOND
     1    29    30    1
     2    30    31    1
     3    30    28    1
     4    19    28    1
     5    19    20    1
     6    20    22    1
     7    22    23    1
     8    23    24    1
     9    24    25    1
    10    19     9    1
    11     9    10   ar
    12    10    11   ar
    13    11    15    1
    14    15    16    1
    15    15    17    1
    16    15    18    1
    17    11    12   ar
    18    12    13   ar
    19    13    14   ar
    20    14     1    1
    21     1     2    1
    22     2     3    1
    23     3     4    1
    24     4     5   am
    25     5     6    2
    26     5    32    1
    27    32    39    1
    28    39    40    1
    29    40    41   ar
    30    41    42   ar
    31    42    43   ar
    32    43    44    1
    33    43    45   ar
    34    45    46   ar
    35    46    47    1
    36    32    33    1
    37    33    34    1
    38    34    35    1
    39    35    36    1
    40    36    37    1
    41    37    38    2
    42     4     7    1
    43     7     8    1
    44    14     9   ar
    45     8     1    1
    46    46    40   ar
    47    37    33   am
    48    20    21    1
    49    25    26    1
    50    25    27    1
@<TRIPOS>MOLECULE
*****
 47 50 0 0 0
SMALL
GASTEIGER

@<TRIPOS>ATOM
      1 N          63.4845   86.4083   14.2327 N.pl3   1  UNL1       -0.3043
      2 C          63.4804   87.0739   15.5769 C.3     1  UNL1        0.1123
      3 C          63.7009   88.5539   15.6817 C.3     1  UNL1        0.1149
      4 N          63.9255   89.3684   14.4422 N.am    1  UNL1       -0.2747
      5 C          64.1459   90.8484   14.5470 C.2     1  UNL1        0.2442
      6 O          64.1418   91.5140   15.8912 O.2     1  UNL1       -0.2731
      7 C          63.9295   88.7028   13.0980 C.3     1  UNL1        0.1149
      8 C          63.7091   87.2227   12.9932 C.3     1  UNL1        0.1123
      9 C          62.7386   84.3366   12.8537 C.ar    1  UNL1        0.0053
     10 C          62.5181   82.8566   12.7491 C.ar    1  UNL1        0.0021
     11 C          62.8232   81.9683   13.9186 C.ar    1  UNL1        0.0712
     12 C          63.3487   82.5600   15.1928 C.ar    1  UNL1        0.0051
     13 C          63.5692   84.0400   15.2975 C.ar    1  UNL1        0.0142
     14 C          63.2641   84.9283   14.1280 C.ar    1  UNL1        0.0451
     15 C          62.6028   80.4882   13.8139 C.3     1  UNL1        0.4186
     16 F          62.3824   79.0083   13.7092 F       1  UNL1       -0.1659
     17 F          64.0864   80.2690   13.7893 F       1  UNL1       -0.1659
     18 F          61.1191   80.7075   13.8385 F       1  UNL1       -0.1659
     19 C          62.4335   85.2249   11.6842 C.3     1  UNL1        0.0780
     20 N          61.1389   85.9808   11.6341 N.3     1  UNL1       -0.2950
     21 H          61.0335   86.4444   12.5365 H       1  UNL1        0.1235
     22 C          60.9217   87.0273   10.5816 C.3     1  UNL1        0.0702
     23 C          60.4350   86.6311    9.2192 C.3     1  UNL1        0.0339
     24 C          59.2135   87.2816    8.6406 C.3     1  UNL1        0.0666
     25 N          58.4763   86.6233    7.5123 N.3     1  UNL1       -0.3211
     26 H          59.0696   86.6060    6.6828 H       1  UNL1        0.1189
     27 H          57.6250   87.1476    7.3106 H       1  UNL1        0.1189
     28 C          63.4230   85.3573   10.5647 C.3     1  UNL1        0.0203
     29 C          62.9979   84.6032    8.1151 C.3     1  UNL1        0.0001
     30 C          63.4947   84.3046    9.4986 C.3     1  UNL1        0.0017
     31 C          64.0631   82.9532    9.8159 C.3     1  UNL1        0.0001
     32 C          64.3704   91.6627   13.3075 C.3     1  UNL1        0.1564
     33 N          63.5777   91.3749   12.0671 N.am    1  UNL1       -0.2727
     34 C          62.2232   90.7323   12.0156 C.3     1  UNL1        0.0943
     35 C          61.8086   90.6393   10.5771 C.3     1  UNL1        0.0311
     36 C          62.9067   91.2244    9.7394 C.3     1  UNL1        0.0870
     37 C          64.0001   91.6790   10.6602 C.2     1  UNL1        0.2260
     38 O          65.2895   92.3244   10.2469 O.2     1  UNL1       -0.2749
     39 C          65.3878   92.7651   13.3084 C.3     1  UNL1        0.0564
     40 C          66.6026   92.6637   14.1824 C.ar    1  UNL1       -0.0094
     41 C          66.5289   93.0835   15.6207 C.ar    1  UNL1       -0.0025
     42 C          67.7437   92.9821   16.4947 C.ar    1  UNL1        0.0111
     43 C          69.0323   92.4610   15.9305 C.ar    1  UNL1        0.0585
     44 CL         70.2471   92.3597   16.8046 Cl      1  UNL1       -0.0822
     45 C          69.1059   92.0413   14.4924 C.ar    1  UNL1        0.0225
     46 C          67.8911   92.1427   13.6183 C.ar    1  UNL1        0.0546
     47 CL         67.9648   91.7229   12.1802 Cl      1  UNL1       -0.0825
@<TRIPOS>BOND
     1    29    30    1
     2    30    31    1
     3    30    28    1
     4    19    28    1
     5    19    20    1
     6    20    22    1
     7    22    23    1
     8    23    24    1
     9    24    25    1
    10    19     9    1
    11     9    10   ar
    12    10    11   ar
    13    11    15    1
    14    15    16    1
    15    15    17    1
    16    15    18    1
    17    11    12   ar
    18    12    13   ar
    19    13    14   ar
    20    14     1    1
    21     1     2    1
    22     2     3    1
    23     3     4    1
    24     4     5   am
    25     5     6    2
    26     5    32    1
    27    32    39    1
    28    39    40    1
    29    40    41   ar
    30    41    42   ar
    31    42    43   ar
    32    43    44    1
    33    43    45   ar
    34    45    46   ar
    35    46    47    1
    36    32    33    1
    37    33    34    1
    38    34    35    1
    39    35    36    1
    40    36    37    1
    41    37    38    2
    42     4     7    1
    43     7     8    1
    44    14     9   ar
    45     8     1    1
    46    46    40   ar
    47    37    33   am
    48    20    21    1
    49    25    26    1
    50    25    27    1
@<TRIPOS>MOLECULE
*****
 47 50 0 0 0
SMALL
GASTEIGER

@<TRIPOS>ATOM
      1 N          64.1690   90.9436   12.9053 N.pl3   1  UNL1       -0.3043
      2 C          62.8554   90.7071   13.5896 C.3     1  UNL1        0.1123
      3 C          61.7533   89.9882   12.8696 C.3     1  UNL1        0.1149
      4 N          61.9649   89.5056   11.4651 N.am    1  UNL1       -0.2747
      5 C          60.8628   88.7866   10.7451 C.2     1  UNL1        0.2442
      6 O          59.5492   88.5502   11.4295 O.2     1  UNL1       -0.2731
      7 C          63.2786   89.7421   10.7808 C.3     1  UNL1        0.1149
      8 C          64.3806   90.4611   11.5009 C.3     1  UNL1        0.1123
      9 C          66.1257   92.6529   12.8911 C.ar    1  UNL1        0.0053
     10 C          67.2277   93.3718   13.6112 C.ar    1  UNL1        0.0021
     11 C          67.4752   93.1006   15.0656 C.ar    1  UNL1        0.0712
     12 C          66.6206   92.1104   15.7998 C.ar    1  UNL1        0.0051
     13 C          65.5186   91.3914   15.0797 C.ar    1  UNL1        0.0142
     14 C          65.2711   91.6627   13.6254 C.ar    1  UNL1        0.0451
     15 C          68.5773   93.8196   15.7857 C.3     1  UNL1        0.4186
     16 F          69.6793   94.5385   16.5058 F       1  UNL1       -0.1659
     17 F          69.0508   92.5177   16.3608 F       1  UNL1       -0.1659
     18 F          68.1037   95.1215   15.2106 F       1  UNL1       -0.1659
     19 C          65.8782   92.9241   11.4367 C.3     1  UNL1        0.0780
     20 N          64.9553   94.0333   11.0271 N.3     1  UNL1       -0.2950
     21 H          64.3143   94.1857   11.8058 H       1  UNL1        0.1235
     22 C          65.5135   95.3753   10.6567 C.3     1  UNL1        0.0702
     23 C          66.9642   95.5117   10.3000 C.3     1  UNL1        0.0339
     24 C          67.3647   95.7892    8.8813 C.3     1  UNL1        0.0666
     25 N          66.3357   95.7526    7.7906 N.3     1  UNL1       -0.3211
     26 H          65.9850   94.8006    7.6858 H       1  UNL1        0.1189
     27 H          66.7585   96.0576    6.9139 H       1  UNL1        0.1189
     28 C          66.5537   92.0862   10.3920 C.3     1  UNL1        0.0203
     29 C          68.7978   92.4591    9.1369 C.3     1  UNL1        0.0001
     30 C          68.0507   91.9985   10.3534 C.3     1  UNL1        0.0017
     31 C          68.8005   91.4502   11.5311 C.3     1  UNL1        0.0001
     32 C          61.0744   88.3042    9.3407 C.3     1  UNL1        0.1564
     33 N          60.1426   88.7406    8.2493 N.am    1  UNL1       -0.2727
     34 C          60.1856   90.0540    7.5260 C.3     1  UNL1        0.0943
     35 C          59.0737   90.0654    6.5192 C.3     1  UNL1        0.0311
     36 C          58.3435   88.7590    6.6203 C.3     1  UNL1        0.0870
     37 C          59.0040   87.9402    7.6896 C.2     1  UNL1        0.2260
     38 O          58.5975   86.5630    8.1229 O.2     1  UNL1       -0.2749
     39 C          62.2179   87.3852    9.0277 C.3     1  UNL1        0.0564
     40 C          62.4566   86.1698    9.8737 C.ar    1  UNL1       -0.0094
     41 C          62.2616   86.2400   11.3594 C.ar    1  UNL1       -0.0025
     42 C          62.5002   85.0246   12.2055 C.ar    1  UNL1        0.0111
     43 C          62.9339   83.7390   11.5659 C.ar    1  UNL1        0.0585
     44 CL         63.1726   82.5236   12.4120 Cl      1  UNL1       -0.0822
     45 C          63.1290   83.6687   10.0803 C.ar    1  UNL1        0.0225
     46 C          62.8903   84.8841    9.2342 C.ar    1  UNL1        0.0546
     47 CL         63.0853   84.8139    7.7487 Cl      1  UNL1       -0.0825
@<TRIPOS>BOND
     1    29    30    1
     2    30    31    1
     3    30    28    1
     4    19    28    1
     5    19    20    1
     6    20    22    1
     7    22    23    1
     8    23    24    1
     9    24    25    1
    10    19     9    1
    11     9    10   ar
    12    10    11   ar
    13    11    15    1
    14    15    16    1
    15    15    17    1
    16    15    18    1
    17    11    12   ar
    18    12    13   ar
    19    13    14   ar
    20    14     1    1
    21     1     2    1
    22     2     3    1
    23     3     4    1
    24     4     5   am
    25     5     6    2
    26     5    32    1
    27    32    39    1
    28    39    40    1
    29    40    41   ar
    30    41    42   ar
    31    42    43   ar
    32    43    44    1
    33    43    45   ar
    34    45    46   ar
    35    46    47    1
    36    32    33    1
    37    33    34    1
    38    34    35    1
    39    35    36    1
    40    36    37    1
    41    37    38    2
    42     4     7    1
    43     7     8    1
    44    14     9   ar
    45     8     1    1
    46    46    40   ar
    47    37    33   am
    48    20    21    1
    49    25    26    1
    50    25    27    1
@<TRIPOS>MOLECULE
*****
 47 50 0 0 0
SMALL
GASTEIGER

@<TRIPOS>ATOM
      1 N          63.5398   86.4359   14.2124 N.pl3   1  UNL1       -0.3043
      2 C          63.5705   87.0900   15.5619 C.3     1  UNL1        0.1123
      3 C          63.8766   88.5537   15.6791 C.3     1  UNL1        0.1149
      4 N          64.1521   89.3634   14.4467 N.am    1  UNL1       -0.2747
      5 C          64.4582   90.8271   14.5639 C.2     1  UNL1        0.2442
      6 O          64.4888   91.4813   15.9133 O.2     1  UNL1       -0.2731
      7 C          64.1215   88.7092   13.0972 C.3     1  UNL1        0.1149
      8 C          63.8153   87.2454   12.9801 C.3     1  UNL1        0.1123
      9 C          62.6235   84.4318   12.8361 C.ar    1  UNL1        0.0053
     10 C          62.3174   82.9681   12.7191 C.ar    1  UNL1        0.0021
     11 C          62.6215   82.0446   13.8612 C.ar    1  UNL1        0.0712
     12 C          63.2318   82.5848   15.1205 C.ar    1  UNL1        0.0051
     13 C          63.5379   84.0485   15.2375 C.ar    1  UNL1        0.0142
     14 C          63.2337   84.9720   14.0953 C.ar    1  UNL1        0.0451
     15 C          62.3154   80.5808   13.7441 C.3     1  UNL1        0.4186
     16 F          62.0092   79.1171   13.6270 F       1  UNL1       -0.1659
     17 F          60.8609   80.8667   13.9732 F       1  UNL1       -0.1659
     18 F          63.7699   80.2949   13.5151 F       1  UNL1       -0.1659
     19 C          62.3193   85.3554   11.6939 C.3     1  UNL1        0.0780
     20 N          61.0272   86.1168   11.6687 N.3     1  UNL1       -0.2950
     21 H          60.8039   86.3500   12.6363 H       1  UNL1        0.1235
     22 C          60.9216   87.3891   10.8813 C.3     1  UNL1        0.0702
     23 C          60.8251   87.3393    9.3851 C.3     1  UNL1        0.0339
     24 C          59.5015   87.0842    8.7271 C.3     1  UNL1        0.0666
     25 N          59.3917   86.0624    7.6345 N.3     1  UNL1       -0.3211
     26 H          59.9283   86.3720    6.8242 H       1  UNL1        0.1189
     27 H          58.4127   85.9500    7.3712 H       1  UNL1        0.1189
     28 C          63.3072   85.5175   10.5770 C.3     1  UNL1        0.0203
     29 C          64.0416   83.1439    9.8174 C.3     1  UNL1        0.0001
     30 C          63.4104   84.4693    9.5090 C.3     1  UNL1        0.0017
     31 C          62.8825   84.7464    8.1326 C.3     1  UNL1        0.0001
     32 C          64.7337   91.6366   13.3315 C.3     1  UNL1        0.1564
     33 N          63.9063   91.4295   12.0976 N.am    1  UNL1       -0.2727
     34 C          64.3086   91.7837   10.6966 C.3     1  UNL1        0.0943
     35 C          63.1823   91.4048    9.7811 C.3     1  UNL1        0.0311
     36 C          62.0840   90.8165   10.6163 C.3     1  UNL1        0.0870
     37 C          62.5314   90.8317   12.0480 C.2     1  UNL1        0.2260
     38 O          61.7425   90.3362   13.2235 O.2     1  UNL1       -0.2749
     39 C          65.8365   92.6534   13.3331 C.3     1  UNL1        0.0564
     40 C          66.2891   93.2710   12.0432 C.ar    1  UNL1       -0.0094
     41 C          65.6192   94.5110   11.5297 C.ar    1  UNL1       -0.0025
     42 C          66.0717   95.1286   10.2398 C.ar    1  UNL1        0.0111
     43 C          67.1941   94.5061    9.4634 C.ar    1  UNL1        0.0585
     44 CL         67.6467   95.1236    8.1735 Cl      1  UNL1       -0.0822
     45 C          67.8640   93.2661    9.9769 C.ar    1  UNL1        0.0225
     46 C          67.4114   92.6485   11.2668 C.ar    1  UNL1        0.0546
     47 CL         68.0813   91.4086   11.7803 Cl      1  UNL1       -0.0825
@<TRIPOS>BOND
     1    29    30    1
     2    30    31    1
     3    30    28    1
     4    19    28    1
     5    19    20    1
     6    20    22    1
     7    22    23    1
     8    23    24    1
     9    24    25    1
    10    19     9    1
    11     9    10   ar
    12    10    11   ar
    13    11    15    1
    14    15    16    1
    15    15    17    1
    16    15    18    1
    17    11    12   ar
    18    12    13   ar
    19    13    14   ar
    20    14     1    1
    21     1     2    1
    22     2     3    1
    23     3     4    1
    24     4     5   am
    25     5     6    2
    26     5    32    1
    27    32    39    1
    28    39    40    1
    29    40    41   ar
    30    41    42   ar
    31    42    43   ar
    32    43    44    1
    33    43    45   ar
    34    45    46   ar
    35    46    47    1
    36    32    33    1
    37    33    34    1
    38    34    35    1
    39    35    36    1
    40    36    37    1
    41    37    38    2
    42     4     7    1
    43     7     8    1
    44    14     9   ar
    45     8     1    1
    46    46    40   ar
    47    37    33   am
    48    20    21    1
    49    25    26    1
    50    25    27    1
@<TRIPOS>MOLECULE
*****
 47 50 0 0 0
SMALL
GASTEIGER

@<TRIPOS>ATOM
      1 N          63.5336   85.6565   13.4220 N.pl3   1  UNL1       -0.3043
      2 C          64.0069   86.1067   14.7723 C.3     1  UNL1        0.1123
      3 C          64.2235   87.5661   15.0430 C.3     1  UNL1        0.1149
      4 N          63.9668   88.5753   13.9633 N.am    1  UNL1       -0.2747
      5 C          64.1834   90.0347   14.2340 C.2     1  UNL1        0.2442
      6 O          64.6567   90.4849   15.5843 O.2     1  UNL1       -0.2731
      7 C          63.4935   88.1251   12.6130 C.3     1  UNL1        0.1149
      8 C          63.2769   86.6656   12.3424 C.3     1  UNL1        0.1123
      9 C          62.8271   83.7482   11.8066 C.ar    1  UNL1        0.0053
     10 C          62.6105   82.2889   11.5360 C.ar    1  UNL1        0.0021
     11 C          62.8838   81.2783   12.6103 C.ar    1  UNL1        0.0712
     12 C          63.3737   81.7271   13.9551 C.ar    1  UNL1        0.0051
     13 C          63.5903   83.1864   14.2257 C.ar    1  UNL1        0.0142
     14 C          63.3170   84.1970   13.1514 C.ar    1  UNL1        0.0451
     15 C          62.6672   79.8188   12.3397 C.3     1  UNL1        0.4186
     16 F          62.4507   78.3594   12.0691 F       1  UNL1       -0.1659
     17 F          62.4915   79.5725   13.8088 F       1  UNL1       -0.1659
     18 F          62.8430   80.0651   10.8705 F       1  UNL1       -0.1659
     19 C          62.5538   84.7588   10.7324 C.3     1  UNL1        0.0780
     20 N          63.5010   84.9012    9.5781 N.3     1  UNL1       -0.2950
     21 H          64.4174   84.6007    9.9103 H       1  UNL1        0.1235
     22 C          63.2407   84.1627    8.2987 C.3     1  UNL1        0.0702
     23 C          62.7867   84.9104    7.0801 C.3     1  UNL1        0.0339
     24 C          61.4167   84.6690    6.5192 C.3     1  UNL1        0.0666
     25 N          61.2581   83.9699    5.2016 N.3     1  UNL1       -0.3211
     26 H          61.6464   84.5517    4.4592 H       1  UNL1        0.1189
     27 H          60.2679   83.8047    5.0213 H       1  UNL1        0.1189
     28 C          61.3333   85.6271   10.8124 C.3     1  UNL1        0.0203
     29 C          59.7124   86.7704    9.1344 C.3     1  UNL1        0.0001
     30 C          61.0744   86.6566    9.7527 C.3     1  UNL1        0.0017
     31 C          62.1774   87.5722    9.3111 C.3     1  UNL1        0.0001
     32 C          63.9267   91.0438   13.1544 C.3     1  UNL1        0.1564
     33 N          62.8339   90.8101   12.1537 N.am    1  UNL1       -0.2727
     34 C          62.9232   91.0567   10.6768 C.3     1  UNL1        0.0943
     35 C          61.6045   90.6878   10.0646 C.3     1  UNL1        0.0311
     36 C          60.7001   90.2131   11.1631 C.3     1  UNL1        0.0870
     37 C          61.4599   90.2887   12.4543 C.2     1  UNL1        0.2260
     38 O          60.9375   89.9095   13.8082 O.2     1  UNL1       -0.2749
     39 C          64.7627   92.2868   13.0753 C.3     1  UNL1        0.0564
     40 C          65.9046   92.3621   12.1056 C.ar    1  UNL1       -0.0094
     41 C          65.6674   92.8382   10.7030 C.ar    1  UNL1       -0.0025
     42 C          66.8093   92.9135    9.7333 C.ar    1  UNL1        0.0111
     43 C          68.1885   92.5128   10.1662 C.ar    1  UNL1        0.0585
     44 CL         69.3304   92.5881    9.1965 Cl      1  UNL1       -0.0822
     45 C          68.4257   92.0367   11.5687 C.ar    1  UNL1        0.0225
     46 C          67.2838   91.9614   12.5384 C.ar    1  UNL1        0.0546
     47 CL         67.5210   91.4854   13.9409 Cl      1  UNL1       -0.0825
@<TRIPOS>BOND
     1    29    30    1
     2    30    31    1
     3    30    28    1
     4    19    28    1
     5    19    20    1
     6    20    22    1
     7    22    23    1
     8    23    24    1
     9    24    25    1
    10    19     9    1
    11     9    10   ar
    12    10    11   ar
    13    11    15    1
    14    15    16    1
    15    15    17    1
    16    15    18    1
    17    11    12   ar
    18    12    13   ar
    19    13    14   ar
    20    14     1    1
    21     1     2    1
    22     2     3    1
    23     3     4    1
    24     4     5   am
    25     5     6    2
    26     5    32    1
    27    32    39    1
    28    39    40    1
    29    40    41   ar
    30    41    42   ar
    31    42    43   ar
    32    43    44    1
    33    43    45   ar
    34    45    46   ar
    35    46    47    1
    36    32    33    1
    37    33    34    1
    38    34    35    1
    39    35    36    1
    40    36    37    1
    41    37    38    2
    42     4     7    1
    43     7     8    1
    44    14     9   ar
    45     8     1    1
    46    46    40   ar
    47    37    33   am
    48    20    21    1
    49    25    26    1
    50    25    27    1
