@<TRIPOS>MOLECULE
*****
 36 39 0 0 0
SMALL
GASTEIGER

@<TRIPOS>ATOM
      1 O          63.1519   88.2136   13.7940 O.3     1  UNL1       -0.4745
      2 C          63.8896   89.4777   13.4659 C.ar    1  UNL1        0.1513
      3 C          64.9885   89.9600   14.3658 C.ar    1  UNL1        0.0688
      4 C          65.7263   91.2240   14.0377 C.ar    1  UNL1        0.1620
      5 F          66.8252   91.7063   14.9377 F       1  UNL1       -0.2026
      6 C          65.3653   92.0060   12.8096 C.ar    1  UNL1        0.1535
      7 C          64.2663   91.5237   11.9096 C.ar    1  UNL1        0.0369
      8 C          63.5286   90.2597   12.2377 C.ar    1  UNL1        0.0930
      9 CL         62.4297   89.7774   11.3378 Cl      1  UNL1       -0.0790
     10 S          66.1030   93.2701   12.4815 S.O2    1  UNL1        0.0773
     11 O          65.7332   93.8338   13.8215 O.2     1  UNL1       -0.1498
     12 O          66.4728   92.7064   11.1416 O.2     1  UNL1       -0.1498
     13 N          66.8408   94.5342   12.1534 N.pl3   1  UNL1       -0.1925
     14 H          67.3894   94.9767   12.8408 H       1  UNL1        0.1758
     15 C          66.7428   95.1242   10.7778 C.ar    1  UNL1        0.1977
     16 N          67.7286   94.9319    9.6636 N.ar    1  UNL1       -0.1997
     17 C          67.2369   95.6989    8.4720 C.ar    1  UNL1        0.2082
     18 N          65.9472   96.3653    8.8496 N.ar    1  UNL1       -0.1840
     19 S          65.6419   96.0101   10.2747 S.2     1  UNL1        0.0508
     20 C          63.6052   86.9078   13.2116 C.3     1  UNL1        0.2058
     21 C          62.7813   86.2306   12.1569 C.3     1  UNL1        0.0514
     22 N          63.8568   81.0412   14.3377 N.3     1  UNL1       -0.3222
     23 C          63.5262   82.2753   13.5517 C.3     1  UNL1        0.0508
     24 C          63.5891   83.6222   14.2087 C.3     1  UNL1        0.0158
     25 C          63.2585   84.8563   13.4227 C.3     1  UNL1        0.0055
     26 C          62.8652   84.7434   11.9796 C.3     1  UNL1        0.0226
     27 C          62.8024   83.3965   11.3226 C.3     1  UNL1        0.0055
     28 C          63.1329   82.1624   12.1086 C.3     1  UNL1        0.0158
     29 H          64.1005   81.3018   15.2932 H       1  UNL1        0.1188
     30 H          64.6464   80.5630   13.9037 H       1  UNL1        0.1188
     31 C          62.4427   85.1470   10.5981 C.ar    1  UNL1       -0.0227
     32 C          63.2438   84.7046    9.4096 C.ar    1  UNL1       -0.0043
     33 C          62.8213   85.1082    8.0280 C.ar    1  UNL1       -0.0003
     34 C          61.5978   85.9542    7.8351 C.ar    1  UNL1       -0.0000
     35 C          60.7967   86.3966    9.0236 C.ar    1  UNL1       -0.0003
     36 C          61.2192   85.9930   10.4051 C.ar    1  UNL1       -0.0043
@<TRIPOS>BOND
     1    23    22    1
     2    23    24    1
     3    24    25    1
     4    25    26    1
     5    26    21    1
     6    21    20    1
     7    20     1    1
     8     1     2    1
     9     2     3   ar
    10     3     4   ar
    11     4     5    1
    12     4     6   ar
    13     6    10    1
    14    10    11    2
    15    10    12    2
    16    10    13    1
    17    13    15    1
    18    15    16   ar
    19    16    17   ar
    20    17    18   ar
    21    18    19   ar
    22     6     7   ar
    23     7     8   ar
    24     8     9    1
    25    26    31    1
    26    31    32   ar
    27    32    33   ar
    28    33    34   ar
    29    34    35   ar
    30    35    36   ar
    31    26    27    1
    32    27    28    1
    33    28    23    1
    34     8     2   ar
    35    36    31   ar
    36    19    15   ar
    37    22    29    1
    38    22    30    1
    39    13    14    1
@<TRIPOS>MOLECULE
*****
 36 39 0 0 0
SMALL
GASTEIGER

@<TRIPOS>ATOM
      1 O          61.4775   86.4777   11.3261 O.3     1  UNL1       -0.4745
      2 C          62.2002   87.7752   11.5362 C.ar    1  UNL1        0.1513
      3 C          63.1203   87.9398   12.7094 C.ar    1  UNL1        0.0688
      4 C          63.8429   89.2373   12.9195 C.ar    1  UNL1        0.1620
      5 F          64.7631   89.4018   14.0927 F       1  UNL1       -0.2026
      6 C          63.6455   90.3703   11.9566 C.ar    1  UNL1        0.1535
      7 C          62.7254   90.2057   10.7833 C.ar    1  UNL1        0.0369
      8 C          62.0027   88.9082   10.5732 C.ar    1  UNL1        0.0930
      9 CL         61.0826   88.7437    9.4000 Cl      1  UNL1       -0.0790
     10 S          64.3682   91.6678   12.1667 S.O2    1  UNL1        0.0773
     11 O          64.8641   91.6208   10.7518 O.2     1  UNL1       -0.1498
     12 O          63.8724   91.7148   13.5816 O.2     1  UNL1       -0.1498
     13 N          65.0909   92.9654   12.3768 N.pl3   1  UNL1       -0.1925
     14 H          64.7994   93.7744   11.8977 H       1  UNL1        0.1758
     15 C          66.2578   93.0301   13.3171 C.ar    1  UNL1        0.1977
     16 N          66.4423   94.0228   14.4264 N.ar    1  UNL1       -0.1997
     17 C          67.7436   93.7198   15.1081 C.ar    1  UNL1        0.2082
     18 N          68.3634   92.5397   14.4202 N.ar    1  UNL1       -0.1840
     19 S          67.4451   92.1135   13.3133 S.2     1  UNL1        0.0508
     20 C          62.2544   85.2126   11.1118 C.3     1  UNL1        0.2058
     21 C          63.2613   84.7690   12.1312 C.3     1  UNL1        0.0514
     22 N          62.7302   79.0980   11.4990 N.3     1  UNL1       -0.3222
     23 C          62.8733   80.5326   11.9128 C.3     1  UNL1        0.0508
     24 C          62.9343   81.6109   10.8719 C.3     1  UNL1        0.0158
     25 C          63.0774   83.0456   11.2857 C.3     1  UNL1        0.0055
     26 C          63.1595   83.4020   12.7404 C.3     1  UNL1        0.0226
     27 C          63.0985   82.3237   13.7813 C.3     1  UNL1        0.0055
     28 C          62.9554   80.8890   13.3675 C.3     1  UNL1        0.0158
     29 H          62.6899   79.0400   10.4815 H       1  UNL1        0.1188
     30 H          61.8726   78.7136   11.8957 H       1  UNL1        0.1188
     31 C          63.2769   84.2332   13.9836 C.ar    1  UNL1       -0.0227
     32 C          62.1923   84.1914   15.0188 C.ar    1  UNL1       -0.0043
     33 C          62.3098   85.0226   16.2620 C.ar    1  UNL1       -0.0003
     34 C          63.5119   85.8954   16.4698 C.ar    1  UNL1       -0.0000
     35 C          64.5965   85.9371   15.4345 C.ar    1  UNL1       -0.0003
     36 C          64.4790   85.1060   14.1914 C.ar    1  UNL1       -0.0043
@<TRIPOS>BOND
     1    23    22    1
     2    23    24    1
     3    24    25    1
     4    25    26    1
     5    26    21    1
     6    21    20    1
     7    20     1    1
     8     1     2    1
     9     2     3   ar
    10     3     4   ar
    11     4     5    1
    12     4     6   ar
    13     6    10    1
    14    10    11    2
    15    10    12    2
    16    10    13    1
    17    13    15    1
    18    15    16   ar
    19    16    17   ar
    20    17    18   ar
    21    18    19   ar
    22     6     7   ar
    23     7     8   ar
    24     8     9    1
    25    26    31    1
    26    31    32   ar
    27    32    33   ar
    28    33    34   ar
    29    34    35   ar
    30    35    36   ar
    31    26    27    1
    32    27    28    1
    33    28    23    1
    34     8     2   ar
    35    36    31   ar
    36    19    15   ar
    37    22    29    1
    38    22    30    1
    39    13    14    1
@<TRIPOS>MOLECULE
*****
 36 39 0 0 0
SMALL
GASTEIGER

@<TRIPOS>ATOM
      1 O          61.0430   88.7762   12.1002 O.3     1  UNL1       -0.4745
      2 C          62.1977   89.7308   12.0271 C.ar    1  UNL1        0.1513
      3 C          63.1747   89.8144   13.1621 C.ar    1  UNL1        0.0688
      4 C          64.3294   90.7691   13.0890 C.ar    1  UNL1        0.1620
      5 F          65.3065   90.8526   14.2242 F       1  UNL1       -0.2026
      6 C          64.5071   91.6401   11.8809 C.ar    1  UNL1        0.1535
      7 C          63.5300   91.5566   10.7458 C.ar    1  UNL1        0.0369
      8 C          62.3753   90.6019   10.8189 C.ar    1  UNL1        0.0930
      9 CL         61.3983   90.5184    9.6838 Cl      1  UNL1       -0.0790
     10 S          65.6618   92.5948   11.8078 S.O2    1  UNL1        0.0773
     11 O          65.3403   93.0893   13.1871 O.2     1  UNL1       -0.1498
     12 O          65.9832   92.1003   10.4287 O.2     1  UNL1       -0.1498
     13 N          66.8165   93.5494   11.7347 N.pl3   1  UNL1       -0.1925
     14 H          67.5588   93.4742   12.3770 H       1  UNL1        0.1758
     15 C          66.8400   94.6188   10.6831 C.ar    1  UNL1        0.1977
     16 N          67.8503   94.7507    9.5823 N.ar    1  UNL1       -0.1997
     17 C          67.4922   95.9573    8.7664 C.ar    1  UNL1        0.2082
     18 N          66.2604   96.5713    9.3630 N.ar    1  UNL1       -0.1840
     19 S          65.8574   95.7439   10.5476 S.2     1  UNL1        0.0508
     20 C          61.0212   87.5571   11.2265 C.3     1  UNL1        0.2058
     21 C          61.6419   86.2789   11.7069 C.3     1  UNL1        0.0514
     22 N          62.7490   84.7067    6.3083 N.3     1  UNL1       -0.3222
     23 C          62.6187   84.9322    7.7855 C.3     1  UNL1        0.0508
     24 C          61.7233   86.0190    8.3022 C.3     1  UNL1        0.0158
     25 C          61.5930   86.2445    9.7794 C.3     1  UNL1        0.0055
     26 C          62.3580   85.3831   10.7400 C.3     1  UNL1        0.0226
     27 C          63.2534   84.2963   10.2233 C.3     1  UNL1        0.0055
     28 C          63.3837   84.0708    8.7461 C.3     1  UNL1        0.0158
     29 H          62.1639   85.3767    5.8092 H       1  UNL1        0.1188
     30 H          62.4494   83.7585    6.0814 H       1  UNL1        0.1188
     31 C          62.8744   84.8328   12.0363 C.ar    1  UNL1       -0.0227
     32 C          62.7756   83.3632   12.3196 C.ar    1  UNL1       -0.0043
     33 C          63.2920   82.8129   13.6160 C.ar    1  UNL1       -0.0003
     34 C          63.9072   83.7323   14.6290 C.ar    1  UNL1       -0.0000
     35 C          64.0061   85.2020   14.3457 C.ar    1  UNL1       -0.0003
     36 C          63.4896   85.7522   13.0493 C.ar    1  UNL1       -0.0043
@<TRIPOS>BOND
     1    23    22    1
     2    23    24    1
     3    24    25    1
     4    25    26    1
     5    26    21    1
     6    21    20    1
     7    20     1    1
     8     1     2    1
     9     2     3   ar
    10     3     4   ar
    11     4     5    1
    12     4     6   ar
    13     6    10    1
    14    10    11    2
    15    10    12    2
    16    10    13    1
    17    13    15    1
    18    15    16   ar
    19    16    17   ar
    20    17    18   ar
    21    18    19   ar
    22     6     7   ar
    23     7     8   ar
    24     8     9    1
    25    26    31    1
    26    31    32   ar
    27    32    33   ar
    28    33    34   ar
    29    34    35   ar
    30    35    36   ar
    31    26    27    1
    32    27    28    1
    33    28    23    1
    34     8     2   ar
    35    36    31   ar
    36    19    15   ar
    37    22    29    1
    38    22    30    1
    39    13    14    1
@<TRIPOS>MOLECULE
*****
 36 39 0 0 0
SMALL
GASTEIGER

@<TRIPOS>ATOM
      1 O          61.3429   86.9467   11.5332 O.3     1  UNL1       -0.4745
      2 C          62.1379   88.2177   11.5821 C.ar    1  UNL1        0.1513
      3 C          63.1158   88.4483   12.6958 C.ar    1  UNL1        0.0688
      4 C          63.9108   89.7193   12.7447 C.ar    1  UNL1        0.1620
      5 F          64.8888   89.9500   13.8585 F       1  UNL1       -0.2026
      6 C          63.7279   90.7598   11.6798 C.ar    1  UNL1        0.1535
      7 C          62.7499   90.5292   10.5660 C.ar    1  UNL1        0.0369
      8 C          61.9549   89.2582   10.5172 C.ar    1  UNL1        0.0930
      9 CL         60.9770   89.0276    9.4034 Cl      1  UNL1       -0.0790
     10 S          64.5229   92.0308   11.7287 S.O2    1  UNL1        0.0773
     11 O          64.4690   92.0070   13.2276 O.2     1  UNL1       -0.1498
     12 O          64.5768   92.0548   10.2299 O.2     1  UNL1       -0.1498
     13 N          65.3179   93.3019   11.7776 N.pl3   1  UNL1       -0.1925
     14 H          65.0490   94.0277   12.3861 H       1  UNL1        0.1758
     15 C          66.5226   93.4672   10.8994 C.ar    1  UNL1        0.1977
     16 N          67.5989   92.4461   10.6778 N.ar    1  UNL1       -0.1997
     17 C          68.6041   93.0302    9.7300 C.ar    1  UNL1        0.2082
     18 N          68.1492   94.4124    9.3658 N.ar    1  UNL1       -0.1840
     19 S          66.8627   94.6824   10.0886 S.2     1  UNL1        0.0508
     20 C          62.0444   85.6281   11.3947 C.3     1  UNL1        0.2058
     21 C          63.0778   85.2189   12.4019 C.3     1  UNL1        0.0514
     22 N          62.7308   79.5362   11.7469 N.3     1  UNL1       -0.3222
     23 C          62.8323   80.9728   12.1662 C.3     1  UNL1        0.0508
     24 C          62.8358   82.0579   11.1307 C.3     1  UNL1        0.0158
     25 C          62.9373   83.4946   11.5500 C.3     1  UNL1        0.0055
     26 C          63.0351   83.8460   13.0049 C.3     1  UNL1        0.0226
     27 C          63.0316   82.7609   14.0405 C.3     1  UNL1        0.0055
     28 C          62.9302   81.3243   13.6211 C.3     1  UNL1        0.0158
     29 H          62.6729   79.4821   10.7300 H       1  UNL1        0.1188
     30 H          61.8949   79.1203   12.1576 H       1  UNL1        0.1188
     31 C          63.1479   84.6743   14.2505 C.ar    1  UNL1       -0.0227
     32 C          62.1611   84.4906   15.3652 C.ar    1  UNL1       -0.0043
     33 C          62.2738   85.3188   16.6107 C.ar    1  UNL1       -0.0003
     34 C          63.3733   86.3308   16.7414 C.ar    1  UNL1       -0.0000
     35 C          64.3601   86.5145   15.6267 C.ar    1  UNL1       -0.0003
     36 C          64.2473   85.6863   14.3813 C.ar    1  UNL1       -0.0043
@<TRIPOS>BOND
     1    23    22    1
     2    23    24    1
     3    24    25    1
     4    25    26    1
     5    26    21    1
     6    21    20    1
     7    20     1    1
     8     1     2    1
     9     2     3   ar
    10     3     4   ar
    11     4     5    1
    12     4     6   ar
    13     6    10    1
    14    10    11    2
    15    10    12    2
    16    10    13    1
    17    13    15    1
    18    15    16   ar
    19    16    17   ar
    20    17    18   ar
    21    18    19   ar
    22     6     7   ar
    23     7     8   ar
    24     8     9    1
    25    26    31    1
    26    31    32   ar
    27    32    33   ar
    28    33    34   ar
    29    34    35   ar
    30    35    36   ar
    31    26    27    1
    32    27    28    1
    33    28    23    1
    34     8     2   ar
    35    36    31   ar
    36    19    15   ar
    37    22    29    1
    38    22    30    1
    39    13    14    1
@<TRIPOS>MOLECULE
*****
 36 39 0 0 0
SMALL
GASTEIGER

@<TRIPOS>ATOM
      1 O          62.7715   88.7964   13.0800 O.3     1  UNL1       -0.4745
      2 C          63.6180   89.9820   12.7226 C.ar    1  UNL1        0.1513
      3 C          63.3921   90.7013   11.4259 C.ar    1  UNL1        0.0688
      4 C          64.2386   91.8869   11.0685 C.ar    1  UNL1        0.1620
      5 F          64.0127   92.6062    9.7717 F       1  UNL1       -0.2026
      6 C          65.3110   92.3534   12.0079 C.ar    1  UNL1        0.1535
      7 C          65.5369   91.6340   13.3048 C.ar    1  UNL1        0.0369
      8 C          64.6904   90.4484   13.6621 C.ar    1  UNL1        0.0930
      9 CL         64.9162   89.7292   14.9588 Cl      1  UNL1       -0.0790
     10 S          66.1575   93.5390   11.6506 S.O2    1  UNL1        0.0773
     11 O          65.7695   94.2040   12.9380 O.2     1  UNL1       -0.1498
     12 O          66.5454   92.8740   10.3632 O.2     1  UNL1       -0.1498
     13 N          67.0040   94.7246   11.2932 N.pl3   1  UNL1       -0.1925
     14 H          67.7152   95.0239   11.9046 H       1  UNL1        0.1758
     15 C          66.7667   95.4543   10.0044 C.ar    1  UNL1        0.1977
     16 N          65.5850   96.3221    9.6871 N.ar    1  UNL1       -0.1997
     17 C          65.7574   96.8485    8.2931 C.ar    1  UNL1        0.2082
     18 N          67.0456   96.3061    7.7488 N.ar    1  UNL1       -0.1840
     19 S          67.6694   95.4444    8.8065 S.2     1  UNL1        0.0508
     20 C          61.8053   88.2357   12.0790 C.3     1  UNL1        0.2058
     21 C          62.0638   86.8959   11.4560 C.3     1  UNL1        0.0514
     22 N          58.5808   88.2601    7.1144 N.3     1  UNL1       -0.3222
     23 C          59.5414   87.6933    8.1174 C.3     1  UNL1        0.0508
     24 C          59.8405   88.4478    9.3789 C.3     1  UNL1        0.0158
     25 C          60.8011   87.8810   10.3819 C.3     1  UNL1        0.0055
     26 C          61.4625   86.5598   10.1235 C.3     1  UNL1        0.0226
     27 C          61.1633   85.8053    8.8621 C.3     1  UNL1        0.0055
     28 C          60.2028   86.3721    7.8591 C.3     1  UNL1        0.0158
     29 H          58.2290   89.1569    7.4496 H       1  UNL1        0.1188
     30 H          57.8011   87.6148    6.9879 H       1  UNL1        0.1188
     31 C          62.3328   85.3552   10.3279 C.ar    1  UNL1       -0.0227
     32 C          63.1853   84.8465    9.2035 C.ar    1  UNL1       -0.0043
     33 C          64.0556   83.6419    9.4078 C.ar    1  UNL1       -0.0003
     34 C          64.0733   82.9462   10.7366 C.ar    1  UNL1       -0.0000
     35 C          63.2207   83.4550   11.8611 C.ar    1  UNL1       -0.0003
     36 C          62.3505   84.6595   11.6566 C.ar    1  UNL1       -0.0043
@<TRIPOS>BOND
     1    23    22    1
     2    23    24    1
     3    24    25    1
     4    25    26    1
     5    26    21    1
     6    21    20    1
     7    20     1    1
     8     1     2    1
     9     2     3   ar
    10     3     4   ar
    11     4     5    1
    12     4     6   ar
    13     6    10    1
    14    10    11    2
    15    10    12    2
    16    10    13    1
    17    13    15    1
    18    15    16   ar
    19    16    17   ar
    20    17    18   ar
    21    18    19   ar
    22     6     7   ar
    23     7     8   ar
    24     8     9    1
    25    26    31    1
    26    31    32   ar
    27    32    33   ar
    28    33    34   ar
    29    34    35   ar
    30    35    36   ar
    31    26    27    1
    32    27    28    1
    33    28    23    1
    34     8     2   ar
    35    36    31   ar
    36    19    15   ar
    37    22    29    1
    38    22    30    1
    39    13    14    1
@<TRIPOS>MOLECULE
*****
 36 39 0 0 0
SMALL
GASTEIGER

@<TRIPOS>ATOM
      1 O          62.6337   88.9003   13.0984 O.3     1  UNL1       -0.4745
      2 C          63.5319   90.0505   12.7515 C.ar    1  UNL1        0.1513
      3 C          64.7374   90.3416   13.5953 C.ar    1  UNL1        0.0688
      4 C          65.6356   91.4917   13.2485 C.ar    1  UNL1        0.1620
      5 F          66.8412   91.7829   14.0924 F       1  UNL1       -0.2026
      6 C          65.3285   92.3508   12.0579 C.ar    1  UNL1        0.1535
      7 C          64.1229   92.0596   11.2140 C.ar    1  UNL1        0.0369
      8 C          63.2247   90.9095   11.5608 C.ar    1  UNL1        0.0930
      9 CL         62.0192   90.6184   10.7170 Cl      1  UNL1       -0.0790
     10 S          66.2267   93.5009   11.7110 S.O2    1  UNL1        0.0773
     11 O          66.5750   92.8371   10.4117 O.2     1  UNL1       -0.1498
     12 O          65.8785   94.1646   13.0102 O.2     1  UNL1       -0.1498
     13 N          67.1250   94.6510   11.3641 N.pl3   1  UNL1       -0.1925
     14 H          67.8521   94.9095   11.9754 H       1  UNL1        0.1758
     15 C          66.9153   95.4072   10.0858 C.ar    1  UNL1        0.1977
     16 N          67.8242   95.3910    8.8926 N.ar    1  UNL1       -0.1997
     17 C          67.2306   96.2862    7.8455 C.ar    1  UNL1        0.2082
     18 N          65.9549   96.8557    8.3916 N.ar    1  UNL1       -0.1840
     19 S          65.7601   96.3124    9.7762 S.2     1  UNL1        0.0508
     20 C          61.8056   88.2472   12.0318 C.3     1  UNL1        0.2058
     21 C          62.2245   86.9245   11.4617 C.3     1  UNL1        0.0514
     22 N          58.7526   87.7855    6.9845 N.3     1  UNL1       -0.3222
     23 C          59.7089   87.3358    8.0489 C.3     1  UNL1        0.0508
     24 C          60.0123   88.2328    9.2122 C.3     1  UNL1        0.0158
     25 C          60.9687   87.7831   10.2767 C.3     1  UNL1        0.0055
     26 C          61.6216   86.4363   10.1779 C.3     1  UNL1        0.0226
     27 C          61.3183   85.5393    9.0146 C.3     1  UNL1        0.0055
     28 C          60.3619   85.9890    7.9501 C.3     1  UNL1        0.0158
     29 H          58.4064   88.7180    7.2104 H       1  UNL1        0.1188
     30 H          57.9687   87.1347    6.9346 H       1  UNL1        0.1188
     31 C          62.4840   85.2590   10.5249 C.ar    1  UNL1       -0.0227
     32 C          62.5581   84.7757   11.9430 C.ar    1  UNL1       -0.0043
     33 C          63.4205   83.5985   12.2900 C.ar    1  UNL1       -0.0003
     34 C          64.2087   82.9046   11.2190 C.ar    1  UNL1       -0.0000
     35 C          64.1347   83.3879    9.8009 C.ar    1  UNL1       -0.0003
     36 C          63.2723   84.5651    9.4540 C.ar    1  UNL1       -0.0043
@<TRIPOS>BOND
     1    23    22    1
     2    23    24    1
     3    24    25    1
     4    25    26    1
     5    26    21    1
     6    21    20    1
     7    20     1    1
     8     1     2    1
     9     2     3   ar
    10     3     4   ar
    11     4     5    1
    12     4     6   ar
    13     6    10    1
    14    10    11    2
    15    10    12    2
    16    10    13    1
    17    13    15    1
    18    15    16   ar
    19    16    17   ar
    20    17    18   ar
    21    18    19   ar
    22     6     7   ar
    23     7     8   ar
    24     8     9    1
    25    26    31    1
    26    31    32   ar
    27    32    33   ar
    28    33    34   ar
    29    34    35   ar
    30    35    36   ar
    31    26    27    1
    32    27    28    1
    33    28    23    1
    34     8     2   ar
    35    36    31   ar
    36    19    15   ar
    37    22    29    1
    38    22    30    1
    39    13    14    1
@<TRIPOS>MOLECULE
*****
 36 39 0 0 0
SMALL
GASTEIGER

@<TRIPOS>ATOM
      1 O          63.3176   90.5085   12.6895 O.3     1  UNL1       -0.4745
      2 C          63.4861   89.0777   13.1073 C.ar    1  UNL1        0.1513
      3 C          63.0325   87.9730   12.1997 C.ar    1  UNL1        0.0688
      4 C          63.2010   86.5423   12.6175 C.ar    1  UNL1        0.1620
      5 F          62.7474   85.4375   11.7098 F       1  UNL1       -0.2026
      6 C          63.8232   86.2162   13.9428 C.ar    1  UNL1        0.1535
      7 C          64.2769   87.3210   14.8505 C.ar    1  UNL1        0.0369
      8 C          64.1083   88.7517   14.4327 C.ar    1  UNL1        0.0930
      9 CL         64.5620   89.8565   15.3403 Cl      1  UNL1       -0.0790
     10 S          63.9917   84.7855   14.3606 S.O2    1  UNL1        0.0773
     11 O          65.4611   84.8741   14.0717 O.2     1  UNL1       -0.1498
     12 O          62.5225   84.6967   14.6494 O.2     1  UNL1       -0.1498
     13 N          64.1603   83.3547   14.7784 N.pl3   1  UNL1       -0.1925
     14 H          64.6678   83.1363   15.5932 H       1  UNL1        0.1758
     15 C          63.5556   82.2567   13.9545 C.ar    1  UNL1        0.1977
     16 N          62.7224   81.1222   14.4729 N.ar    1  UNL1       -0.1997
     17 C          62.3297   80.2647   13.3065 C.ar    1  UNL1        0.2082
     18 N          62.9201   80.8692   12.0672 N.ar    1  UNL1       -0.1840
     19 S          63.6778   82.1003   12.4678 S.2     1  UNL1        0.0508
     20 C          64.3452   91.1596   11.8120 C.3     1  UNL1        0.2058
     21 C          65.6223   91.6741   12.4071 C.3     1  UNL1        0.0514
     22 N          65.4282   96.5437    9.3919 N.3     1  UNL1       -0.3222
     23 C          65.6153   95.4028   10.3476 C.3     1  UNL1        0.0508
     24 C          65.0211   94.0606   10.0387 C.3     1  UNL1        0.0158
     25 C          65.2082   92.9196   10.9944 C.3     1  UNL1        0.0055
     26 C          65.9894   93.1209   12.2590 C.3     1  UNL1        0.0226
     27 C          66.5835   94.4631   12.5679 C.3     1  UNL1        0.0055
     28 C          66.3964   95.6041   11.6122 C.3     1  UNL1        0.0158
     29 H          64.8767   96.2309    8.5929 H       1  UNL1        0.1188
     30 H          66.3392   96.8700    9.0695 H       1  UNL1        0.1188
     31 C          66.6431   92.8198   13.5751 C.ar    1  UNL1       -0.0227
     32 C          68.0223   92.2311   13.6101 C.ar    1  UNL1       -0.0043
     33 C          68.6760   91.9299   14.9261 C.ar    1  UNL1       -0.0003
     34 C          67.9505   92.2175   16.2071 C.ar    1  UNL1       -0.0000
     35 C          66.5713   92.8061   16.1721 C.ar    1  UNL1       -0.0003
     36 C          65.9176   93.1073   14.8560 C.ar    1  UNL1       -0.0043
@<TRIPOS>BOND
     1    23    22    1
     2    23    24    1
     3    24    25    1
     4    25    26    1
     5    26    21    1
     6    21    20    1
     7    20     1    1
     8     1     2    1
     9     2     3   ar
    10     3     4   ar
    11     4     5    1
    12     4     6   ar
    13     6    10    1
    14    10    11    2
    15    10    12    2
    16    10    13    1
    17    13    15    1
    18    15    16   ar
    19    16    17   ar
    20    17    18   ar
    21    18    19   ar
    22     6     7   ar
    23     7     8   ar
    24     8     9    1
    25    26    31    1
    26    31    32   ar
    27    32    33   ar
    28    33    34   ar
    29    34    35   ar
    30    35    36   ar
    31    26    27    1
    32    27    28    1
    33    28    23    1
    34     8     2   ar
    35    36    31   ar
    36    19    15   ar
    37    22    29    1
    38    22    30    1
    39    13    14    1
@<TRIPOS>MOLECULE
*****
 36 39 0 0 0
SMALL
GASTEIGER

@<TRIPOS>ATOM
      1 O          63.3937   90.5054   12.3996 O.3     1  UNL1       -0.4745
      2 C          63.4852   89.0750   12.8419 C.ar    1  UNL1        0.1513
      3 C          64.1074   88.7372   14.1643 C.ar    1  UNL1        0.0688
      4 C          64.1988   87.3069   14.6066 C.ar    1  UNL1        0.1620
      5 F          64.8210   86.9691   15.9292 F       1  UNL1       -0.2026
      6 C          63.6682   86.2143   13.7266 C.ar    1  UNL1        0.1535
      7 C          63.0460   86.5520   12.4041 C.ar    1  UNL1        0.0369
      8 C          62.9546   87.9824   11.9618 C.ar    1  UNL1        0.0930
      9 CL         62.3324   88.3202   10.6393 Cl      1  UNL1       -0.0790
     10 S          63.7597   84.7839   14.1689 S.O2    1  UNL1        0.0773
     11 O          65.2419   84.8076   13.9392 O.2     1  UNL1       -0.1498
     12 O          62.2776   84.7601   14.3986 O.2     1  UNL1       -0.1498
     13 N          63.8512   83.3535   14.6112 N.pl3   1  UNL1       -0.1925
     14 H          64.2184   83.1350   15.4982 H       1  UNL1        0.1758
     15 C          63.3833   82.2560   13.7021 C.ar    1  UNL1        0.1977
     16 N          62.8027   80.9417   14.1329 N.ar    1  UNL1       -0.1997
     17 C          62.4743   80.1535   12.8997 C.ar    1  UNL1        0.2082
     18 N          62.8518   80.9806   11.7067 N.ar    1  UNL1       -0.1840
     19 S          63.4136   82.2801   12.2027 S.2     1  UNL1        0.0508
     20 C          64.4638   91.0903   11.5262 C.3     1  UNL1        0.2058
     21 C          65.0718   92.4173   11.8717 C.3     1  UNL1        0.0514
     22 N          67.9119   91.8714   16.8191 N.3     1  UNL1       -0.3222
     23 C          67.3945   92.0727   15.4257 C.3     1  UNL1        0.0508
     24 C          65.9349   91.8873   15.1336 C.3     1  UNL1        0.0158
     25 C          65.4174   92.0887   13.7401 C.3     1  UNL1        0.0055
     26 C          66.3595   92.4754   12.6388 C.3     1  UNL1        0.0226
     27 C          67.8190   92.6608   12.9309 C.3     1  UNL1        0.0055
     28 C          68.3365   92.4595   14.3244 C.3     1  UNL1        0.0158
     29 H          67.1403   91.6140   17.4345 H       1  UNL1        0.1188
     30 H          68.3382   92.7363   17.1518 H       1  UNL1        0.1188
     31 C          66.8543   92.8419   11.2710 C.ar    1  UNL1       -0.0227
     32 C          67.9032   92.0030   10.6032 C.ar    1  UNL1       -0.0043
     33 C          68.3981   92.3695    9.2354 C.ar    1  UNL1       -0.0003
     34 C          67.8440   93.5750    8.5356 C.ar    1  UNL1       -0.0000
     35 C          66.7952   94.4140    9.2034 C.ar    1  UNL1       -0.0003
     36 C          66.3004   94.0474   10.5711 C.ar    1  UNL1       -0.0043
@<TRIPOS>BOND
     1    23    22    1
     2    23    24    1
     3    24    25    1
     4    25    26    1
     5    26    21    1
     6    21    20    1
     7    20     1    1
     8     1     2    1
     9     2     3   ar
    10     3     4   ar
    11     4     5    1
    12     4     6   ar
    13     6    10    1
    14    10    11    2
    15    10    12    2
    16    10    13    1
    17    13    15    1
    18    15    16   ar
    19    16    17   ar
    20    17    18   ar
    21    18    19   ar
    22     6     7   ar
    23     7     8   ar
    24     8     9    1
    25    26    31    1
    26    31    32   ar
    27    32    33   ar
    28    33    34   ar
    29    34    35   ar
    30    35    36   ar
    31    26    27    1
    32    27    28    1
    33    28    23    1
    34     8     2   ar
    35    36    31   ar
    36    19    15   ar
    37    22    29    1
    38    22    30    1
    39    13    14    1
@<TRIPOS>MOLECULE
*****
 36 39 0 0 0
SMALL
GASTEIGER

@<TRIPOS>ATOM
      1 O          61.0006   88.8225   12.0275 O.3     1  UNL1       -0.4745
      2 C          62.2003   89.6992   12.2321 C.ar    1  UNL1        0.1513
      3 C          62.9821   89.6143   13.5094 C.ar    1  UNL1        0.0688
      4 C          64.1819   90.4910   13.7140 C.ar    1  UNL1        0.1620
      5 F          64.9638   90.4061   14.9914 F       1  UNL1       -0.2026
      6 C          64.5999   91.4526   12.6414 C.ar    1  UNL1        0.1535
      7 C          63.8180   91.5375   11.3640 C.ar    1  UNL1        0.0369
      8 C          62.6183   90.6608   11.1594 C.ar    1  UNL1        0.0930
      9 CL         61.8365   90.7456    9.8821 Cl      1  UNL1       -0.0790
     10 S          65.7997   92.3293   12.8460 S.O2    1  UNL1        0.0773
     11 O          66.3180   91.9355   11.4946 O.2     1  UNL1       -0.1498
     12 O          65.2814   92.7231   14.1974 O.2     1  UNL1       -0.1498
     13 N          66.9995   93.2060   13.0506 N.pl3   1  UNL1       -0.1925
     14 H          67.2725   93.8388   12.3476 H       1  UNL1        0.1758
     15 C          67.7833   93.1186   14.3265 C.ar    1  UNL1        0.1977
     16 N          68.2847   94.2787   15.1346 N.ar    1  UNL1       -0.1997
     17 C          69.0147   93.7329   16.3259 C.ar    1  UNL1        0.2082
     18 N          68.9646   92.2355   16.2541 N.ar    1  UNL1       -0.1840
     19 S          68.2035   91.8559   15.0184 S.2     1  UNL1        0.0508
     20 C          61.0227   87.7546   10.9743 C.3     1  UNL1        0.2058
     21 C          61.3887   86.3470   11.3409 C.3     1  UNL1        0.0514
     22 N          62.5338   84.6932    5.9748 N.3     1  UNL1       -0.3222
     23 C          62.4173   84.9642    7.4455 C.3     1  UNL1        0.0508
     24 C          61.4075   85.9528    7.9483 C.3     1  UNL1        0.0158
     25 C          61.2910   86.2238    9.4190 C.3     1  UNL1        0.0055
     26 C          62.1842   85.5061   10.3869 C.3     1  UNL1        0.0226
     27 C          63.1940   84.5175    9.8842 C.3     1  UNL1        0.0055
     28 C          63.3106   84.2465    8.4134 C.3     1  UNL1        0.0158
     29 H          61.8558   85.2634    5.4692 H       1  UNL1        0.1188
     30 H          62.3492   83.7063    5.7952 H       1  UNL1        0.1188
     31 C          62.8013   85.0804   11.6862 C.ar    1  UNL1       -0.0227
     32 C          63.3624   86.1092   12.6226 C.ar    1  UNL1       -0.0043
     33 C          63.9794   85.6835   13.9219 C.ar    1  UNL1       -0.0003
     34 C          64.0352   84.2291   14.2847 C.ar    1  UNL1       -0.0000
     35 C          63.4741   83.2004   13.3483 C.ar    1  UNL1       -0.0003
     36 C          62.8571   83.6261   12.0491 C.ar    1  UNL1       -0.0043
@<TRIPOS>BOND
     1    23    22    1
     2    23    24    1
     3    24    25    1
     4    25    26    1
     5    26    21    1
     6    21    20    1
     7    20     1    1
     8     1     2    1
     9     2     3   ar
    10     3     4   ar
    11     4     5    1
    12     4     6   ar
    13     6    10    1
    14    10    11    2
    15    10    12    2
    16    10    13    1
    17    13    15    1
    18    15    16   ar
    19    16    17   ar
    20    17    18   ar
    21    18    19   ar
    22     6     7   ar
    23     7     8   ar
    24     8     9    1
    25    26    31    1
    26    31    32   ar
    27    32    33   ar
    28    33    34   ar
    29    34    35   ar
    30    35    36   ar
    31    26    27    1
    32    27    28    1
    33    28    23    1
    34     8     2   ar
    35    36    31   ar
    36    19    15   ar
    37    22    29    1
    38    22    30    1
    39    13    14    1
