@<TRIPOS>MOLECULE
*****
 26 30 0 0 0
SMALL
GASTEIGER

@<TRIPOS>ATOM
      1 O          61.5849   84.8396    6.4919 O.2     1  UNL1       -0.2501
      2 C          60.8482   85.7127    7.4639 C.2     1  UNL1        0.3169
      3 O          59.4404   86.2081    7.3125 O.3     1  UNL1       -0.4485
      4 C          59.1120   87.0454    8.5130 C.3     1  UNL1        0.2092
      5 C          60.3168   87.0675    9.4063 C.3     1  UNL1        0.0591
      6 C          61.3898   86.2439    8.7580 C.3     1  UNL1        0.1073
      7 C          60.4288   87.7869   10.7178 C.3     1  UNL1        0.0307
      8 C          61.4624   88.8588   10.8993 C.ar    1  UNL1       -0.0188
      9 C          61.6965   89.8665    9.8133 C.ar    1  UNL1       -0.0009
     10 C          62.7300   90.9384    9.9949 C.ar    1  UNL1        0.0399
     11 C          63.5294   91.0025   11.2625 C.ar    1  UNL1        0.1764
     12 C          63.2953   89.9947   12.3486 C.ar    1  UNL1        0.1761
     13 C          62.2618   88.9228   12.1670 C.ar    1  UNL1        0.0359
     14 O          64.2294   90.3070   13.4799 O.3     1  UNL1       -0.4346
     15 C          65.0408   91.5078   13.0930 C.3     1  UNL1        0.4294
     16 O          64.6082   91.9376   11.7226 O.3     1  UNL1       -0.4346
     17 C          62.7632   85.9951    9.3073 C.3     1  UNL1        0.0377
     18 C          63.0196   84.7960   10.1713 C.ar    1  UNL1       -0.0184
     19 C          63.7955   83.6326    9.6287 C.ar    1  UNL1       -0.0009
     20 C          64.0518   82.4336   10.4927 C.ar    1  UNL1        0.0399
     21 C          63.5323   82.3979   11.8994 C.ar    1  UNL1        0.1764
     22 C          62.7563   83.5613   12.4420 C.ar    1  UNL1        0.1761
     23 C          62.5000   84.7604   11.5780 C.ar    1  UNL1        0.0359
     24 O          62.3720   83.2429   13.8565 O.3     1  UNL1       -0.4346
     25 C          62.9104   81.8827   14.1882 C.3     1  UNL1        0.4294
     26 O          63.6275   81.3605   12.9785 O.3     1  UNL1       -0.4346
@<TRIPOS>BOND
     1     1     2    2
     2     2     3    1
     3     3     4    1
     4     4     5    1
     5     5     7    1
     6     7     8    1
     7     8     9   ar
     8     9    10   ar
     9    10    11   ar
    10    11    12   ar
    11    12    13   ar
    12    12    14    1
    13    14    15    1
    14    15    16    1
    15     5     6    1
    16     6    17    1
    17    17    18    1
    18    18    19   ar
    19    19    20   ar
    20    20    21   ar
    21    21    22   ar
    22    22    23   ar
    23    22    24    1
    24    24    25    1
    25    25    26    1
    26     6     2    1
    27    23    18   ar
    28    13     8   ar
    29    26    21    1
    30    16    11    1
@<TRIPOS>MOLECULE
*****
 26 30 0 0 0
SMALL
GASTEIGER

@<TRIPOS>ATOM
      1 O          62.2025   89.6795   16.0612 O.2     1  UNL1       -0.2501
      2 C          63.4163   90.5337   15.8452 C.2     1  UNL1        0.3169
      3 O          63.8098   91.7293   16.6613 O.3     1  UNL1       -0.4485
      4 C          65.0865   92.2769   16.0956 C.3     1  UNL1        0.2092
      5 C          65.4822   91.4199   14.9299 C.3     1  UNL1        0.0591
      6 C          64.4501   90.3425   14.7751 C.3     1  UNL1        0.1073
      7 C          66.6969   91.6073   14.0700 C.3     1  UNL1        0.0307
      8 C          66.6591   92.5665   12.9173 C.ar    1  UNL1       -0.0188
      9 C          66.9735   92.0865   11.5315 C.ar    1  UNL1       -0.0009
     10 C          66.9357   93.0457   10.3789 C.ar    1  UNL1        0.0399
     11 C          66.5834   94.4850   10.6122 C.ar    1  UNL1        0.1764
     12 C          66.2690   94.9650   11.9981 C.ar    1  UNL1        0.1761
     13 C          66.3068   94.0058   13.1507 C.ar    1  UNL1        0.0359
     14 O          65.9576   96.4304   11.9216 O.3     1  UNL1       -0.4346
     15 C          66.0796   96.8559   10.4885 C.3     1  UNL1        0.4294
     16 O          66.4664   95.6537    9.6792 O.3     1  UNL1       -0.4346
     17 C          64.4513   89.2634   13.7333 C.3     1  UNL1        0.0377
     18 C          63.5423   89.3675   12.5445 C.ar    1  UNL1       -0.0184
     19 C          63.3574   90.6868   11.8551 C.ar    1  UNL1       -0.0009
     20 C          62.4484   90.7910   10.6665 C.ar    1  UNL1        0.0399
     21 C          61.7244   89.5758   10.1672 C.ar    1  UNL1        0.1764
     22 C          61.9094   88.2566   10.8567 C.ar    1  UNL1        0.1761
     23 C          62.8183   88.1524   12.0453 C.ar    1  UNL1        0.0359
     24 O          61.0698   87.2389   10.1429 O.3     1  UNL1       -0.4346
     25 C          60.3661   87.9291    9.0123 C.3     1  UNL1        0.4294
     26 O          60.7706   89.3735    9.0274 O.3     1  UNL1       -0.4346
@<TRIPOS>BOND
     1     1     2    2
     2     2     3    1
     3     3     4    1
     4     4     5    1
     5     5     7    1
     6     7     8    1
     7     8     9   ar
     8     9    10   ar
     9    10    11   ar
    10    11    12   ar
    11    12    13   ar
    12    12    14    1
    13    14    15    1
    14    15    16    1
    15     5     6    1
    16     6    17    1
    17    17    18    1
    18    18    19   ar
    19    19    20   ar
    20    20    21   ar
    21    21    22   ar
    22    22    23   ar
    23    22    24    1
    24    24    25    1
    25    25    26    1
    26     6     2    1
    27    23    18   ar
    28    13     8   ar
    29    26    21    1
    30    16    11    1
@<TRIPOS>MOLECULE
*****
 26 30 0 0 0
SMALL
GASTEIGER

@<TRIPOS>ATOM
      1 O          58.3007   86.9620    7.9649 O.2     1  UNL1       -0.2501
      2 C          59.6637   86.3420    7.8774 C.2     1  UNL1        0.3169
      3 O          60.2019   85.5557    6.7189 O.3     1  UNL1       -0.4485
      4 C          61.5987   85.1272    7.0585 C.3     1  UNL1        0.2092
      5 C          61.9238   85.6486    8.4269 C.3     1  UNL1        0.0591
      6 C          60.7279   86.3994    8.9330 C.3     1  UNL1        0.1073
      7 C          63.2176   85.4535    9.1603 C.3     1  UNL1        0.0307
      8 C          63.3066   84.4476   10.2696 C.ar    1  UNL1       -0.0188
      9 C          63.9515   83.1158   10.0243 C.ar    1  UNL1       -0.0009
     10 C          64.0405   82.1099   11.1334 C.ar    1  UNL1        0.0399
     11 C          63.4846   82.4359   12.4879 C.ar    1  UNL1        0.1764
     12 C          62.8397   83.7678   12.7333 C.ar    1  UNL1        0.1761
     13 C          62.7507   84.7737   11.6241 C.ar    1  UNL1        0.0359
     14 O          62.3840   83.8061   14.1619 O.3     1  UNL1       -0.4346
     15 C          62.7474   82.4979   14.7994 C.3     1  UNL1        0.4294
     16 O          63.4276   81.6510   13.7649 O.3     1  UNL1       -0.4346
     17 C          60.6159   87.0870   10.2614 C.3     1  UNL1        0.0377
     18 C          61.4721   88.2813   10.5624 C.ar    1  UNL1       -0.0184
     19 C          61.5068   89.4387    9.6088 C.ar    1  UNL1       -0.0009
     20 C          62.3630   90.6329    9.9097 C.ar    1  UNL1        0.0399
     21 C          63.1845   90.6699   11.1642 C.ar    1  UNL1        0.1764
     22 C          63.1497   89.5125   12.1178 C.ar    1  UNL1        0.1761
     23 C          62.2936   88.3182   11.8169 C.ar    1  UNL1        0.0359
     24 O          64.0602   89.8310   13.2665 O.3     1  UNL1       -0.4346
     25 C          64.6577   91.1851   13.0229 C.3     1  UNL1        0.4294
     26 O          64.1164   91.7036   11.7236 O.3     1  UNL1       -0.4346
@<TRIPOS>BOND
     1     1     2    2
     2     2     3    1
     3     3     4    1
     4     4     5    1
     5     5     7    1
     6     7     8    1
     7     8     9   ar
     8     9    10   ar
     9    10    11   ar
    10    11    12   ar
    11    12    13   ar
    12    12    14    1
    13    14    15    1
    14    15    16    1
    15     5     6    1
    16     6    17    1
    17    17    18    1
    18    18    19   ar
    19    19    20   ar
    20    20    21   ar
    21    21    22   ar
    22    22    23   ar
    23    22    24    1
    24    24    25    1
    25    25    26    1
    26     6     2    1
    27    23    18   ar
    28    13     8   ar
    29    26    21    1
    30    16    11    1
@<TRIPOS>MOLECULE
*****
 26 30 0 0 0
SMALL
GASTEIGER

@<TRIPOS>ATOM
      1 O          59.7937   90.8372   10.5201 O.2     1  UNL1       -0.2501
      2 C          60.0973   89.4377   10.0741 C.2     1  UNL1        0.3169
      3 O          59.0911   88.3523    9.8297 O.3     1  UNL1       -0.4485
      4 C          59.8323   87.1215    9.3987 C.3     1  UNL1        0.2092
      5 C          61.2966   87.4462    9.3767 C.3     1  UNL1        0.0591
      6 C          61.4604   88.8776    9.7941 C.3     1  UNL1        0.1073
      7 C          62.4028   86.5046    9.0028 C.3     1  UNL1        0.0307
      8 C          62.7858   85.3908    9.9318 C.ar    1  UNL1       -0.0188
      9 C          63.5444   84.2067    9.4103 C.ar    1  UNL1       -0.0009
     10 C          63.9274   83.0929   10.3392 C.ar    1  UNL1        0.0399
     11 C          63.5516   83.1634   11.7897 C.ar    1  UNL1        0.1764
     12 C          62.7929   84.3476   12.3112 C.ar    1  UNL1        0.1761
     13 C          62.4099   85.4613   11.3823 C.ar    1  UNL1        0.0359
     14 O          62.5623   84.1407   13.7789 O.3     1  UNL1       -0.4346
     15 C          63.1786   82.8286   14.1644 C.3     1  UNL1        0.4294
     16 O          63.7900   82.2245   12.9350 O.3     1  UNL1       -0.4346
     17 C          62.7592   89.6188    9.9109 C.3     1  UNL1        0.0377
     18 C          63.2005   90.1534   11.2412 C.ar    1  UNL1       -0.0184
     19 C          64.1395   91.3214   11.3059 C.ar    1  UNL1       -0.0009
     20 C          64.5808   91.8561   12.6361 C.ar    1  UNL1        0.0399
     21 C          64.0832   91.2227   13.9014 C.ar    1  UNL1        0.1764
     22 C          63.1443   90.0548   13.8367 C.ar    1  UNL1        0.1761
     23 C          62.7029   89.5201   12.5066 C.ar    1  UNL1        0.0359
     24 O          62.8233   89.6397   15.2419 O.3     1  UNL1       -0.4346
     25 C          63.5638   90.5511   16.1752 C.3     1  UNL1        0.4294
     26 O          64.3425   91.5295   15.3467 O.3     1  UNL1       -0.4346
@<TRIPOS>BOND
     1     1     2    2
     2     2     3    1
     3     3     4    1
     4     4     5    1
     5     5     7    1
     6     7     8    1
     7     8     9   ar
     8     9    10   ar
     9    10    11   ar
    10    11    12   ar
    11    12    13   ar
    12    12    14    1
    13    14    15    1
    14    15    16    1
    15     5     6    1
    16     6    17    1
    17    17    18    1
    18    18    19   ar
    19    19    20   ar
    20    20    21   ar
    21    21    22   ar
    22    22    23   ar
    23    22    24    1
    24    24    25    1
    25    25    26    1
    26     6     2    1
    27    23    18   ar
    28    13     8   ar
    29    26    21    1
    30    16    11    1
@<TRIPOS>MOLECULE
*****
 26 30 0 0 0
SMALL
GASTEIGER

@<TRIPOS>ATOM
      1 O          66.4661   92.5518   13.3441 O.2     1  UNL1       -0.2501
      2 C          65.3088   91.9760   12.5832 C.2     1  UNL1        0.3169
      3 O          65.1279   92.0097   11.0945 O.3     1  UNL1       -0.4485
      4 C          63.8364   91.3199   10.7687 C.3     1  UNL1        0.2092
      5 C          63.2189   90.8600   12.0560 C.3     1  UNL1        0.0591
      6 C          64.1288   91.2655   13.1775 C.3     1  UNL1        0.1073
      7 C          61.9196   90.1239   12.1971 C.3     1  UNL1        0.0307
      8 C          61.5693   89.0292   11.2332 C.ar    1  UNL1       -0.0188
      9 C          62.3107   87.7260   11.2766 C.ar    1  UNL1       -0.0009
     10 C          61.9604   86.6313   10.3128 C.ar    1  UNL1        0.0399
     11 C          60.8687   86.8399    9.3055 C.ar    1  UNL1        0.1764
     12 C          60.1272   88.1432    9.2620 C.ar    1  UNL1        0.1761
     13 C          60.4775   89.2378   10.2259 C.ar    1  UNL1        0.0359
     14 O          59.1063   88.0594    8.1663 O.3     1  UNL1       -0.4346
     15 C          59.2168   86.7044    7.5325 C.3     1  UNL1        0.4294
     16 O          60.3060   85.9507    8.2366 O.3     1  UNL1       -0.4346
     17 C          63.8992   91.0060   14.6369 C.3     1  UNL1        0.0377
     18 C          63.7907   89.5971   15.1402 C.ar    1  UNL1       -0.0184
     19 C          63.1428   89.3216   16.4647 C.ar    1  UNL1       -0.0009
     20 C          63.0343   87.9128   16.9680 C.ar    1  UNL1        0.0399
     21 C          63.5735   86.7794   16.1467 C.ar    1  UNL1        0.1764
     22 C          64.2214   87.0548   14.8222 C.ar    1  UNL1        0.1761
     23 C          64.3299   88.4637   14.3189 C.ar    1  UNL1        0.0359
     24 O          64.6580   85.7439   14.2383 O.3     1  UNL1       -0.4346
     25 C          64.2801   84.6583   15.2019 C.3     1  UNL1        0.4294
     26 O          63.6098   85.2983   16.3814 O.3     1  UNL1       -0.4346
@<TRIPOS>BOND
     1     1     2    2
     2     2     3    1
     3     3     4    1
     4     4     5    1
     5     5     7    1
     6     7     8    1
     7     8     9   ar
     8     9    10   ar
     9    10    11   ar
    10    11    12   ar
    11    12    13   ar
    12    12    14    1
    13    14    15    1
    14    15    16    1
    15     5     6    1
    16     6    17    1
    17    17    18    1
    18    18    19   ar
    19    19    20   ar
    20    20    21   ar
    21    21    22   ar
    22    22    23   ar
    23    22    24    1
    24    24    25    1
    25    25    26    1
    26     6     2    1
    27    23    18   ar
    28    13     8   ar
    29    26    21    1
    30    16    11    1
@<TRIPOS>MOLECULE
*****
 26 30 0 0 0
SMALL
GASTEIGER

@<TRIPOS>ATOM
      1 O          63.3098   85.7182   17.4006 O.2     1  UNL1       -0.2501
      2 C          63.3621   87.0344   16.6832 C.2     1  UNL1        0.3169
      3 O          62.7292   88.3146   17.1423 O.3     1  UNL1       -0.4485
      4 C          63.0324   89.3730   16.1235 C.3     1  UNL1        0.2092
      5 C          63.8528   88.7470   15.0349 C.3     1  UNL1        0.0591
      6 C          64.0565   87.3018   15.3807 C.3     1  UNL1        0.1073
      7 C          64.3772   89.4440   13.8146 C.3     1  UNL1        0.0307
      8 C          63.5275   89.5398   12.5821 C.ar    1  UNL1       -0.0188
      9 C          63.4147   90.8431   11.8484 C.ar    1  UNL1       -0.0009
     10 C          62.5650   90.9389   10.6160 C.ar    1  UNL1        0.0399
     11 C          61.8280   89.7314   10.1174 C.ar    1  UNL1        0.1764
     12 C          61.9408   88.4280   10.8512 C.ar    1  UNL1        0.1761
     13 C          62.7905   88.3321   12.0836 C.ar    1  UNL1        0.0359
     14 O          61.1044   87.4147   10.1275 O.3     1  UNL1       -0.4346
     15 C          60.4747   88.0919    8.9464 C.3     1  UNL1        0.4294
     16 O          60.9220   89.5236    8.9402 O.3     1  UNL1       -0.4346
     17 C          64.8206   86.2997   14.5670 C.3     1  UNL1        0.0377
     18 C          64.1146   85.1105   13.9860 C.ar    1  UNL1       -0.0184
     19 C          63.2830   85.2635   12.7471 C.ar    1  UNL1       -0.0009
     20 C          62.5770   84.0744   12.1660 C.ar    1  UNL1        0.0399
     21 C          62.7026   82.7323   12.8240 C.ar    1  UNL1        0.1764
     22 C          63.5342   82.5793   14.0629 C.ar    1  UNL1        0.1761
     23 C          64.2402   83.7684   14.6440 C.ar    1  UNL1        0.0359
     24 O          63.4725   81.1421   14.4880 O.3     1  UNL1       -0.4346
     25 C          62.6028   80.4069   13.5118 C.3     1  UNL1        0.4294
     26 O          62.1270   81.3897   12.4834 O.3     1  UNL1       -0.4346
@<TRIPOS>BOND
     1     1     2    2
     2     2     3    1
     3     3     4    1
     4     4     5    1
     5     5     7    1
     6     7     8    1
     7     8     9   ar
     8     9    10   ar
     9    10    11   ar
    10    11    12   ar
    11    12    13   ar
    12    12    14    1
    13    14    15    1
    14    15    16    1
    15     5     6    1
    16     6    17    1
    17    17    18    1
    18    18    19   ar
    19    19    20   ar
    20    20    21   ar
    21    21    22   ar
    22    22    23   ar
    23    22    24    1
    24    24    25    1
    25    25    26    1
    26     6     2    1
    27    23    18   ar
    28    13     8   ar
    29    26    21    1
    30    16    11    1
@<TRIPOS>MOLECULE
*****
 26 30 0 0 0
SMALL
GASTEIGER

@<TRIPOS>ATOM
      1 O          63.0795   86.3608   17.7653 O.2     1  UNL1       -0.2501
      2 C          63.1481   87.5109   16.8050 C.2     1  UNL1        0.3169
      3 O          62.4780   88.8422   16.9742 O.3     1  UNL1       -0.4485
      4 C          62.8147   89.6858   15.7805 C.3     1  UNL1        0.2092
      5 C          63.6930   88.8759   14.8735 C.3     1  UNL1        0.0591
      6 C          63.8991   87.5318   15.5065 C.3     1  UNL1        0.1073
      7 C          64.2647   89.3304   13.5633 C.3     1  UNL1        0.0307
      8 C          64.9115   90.6795   13.4549 C.ar    1  UNL1       -0.0188
      9 C          65.7240   91.2156   14.5960 C.ar    1  UNL1       -0.0009
     10 C          66.3708   92.5647   14.4876 C.ar    1  UNL1        0.0399
     11 C          66.2050   93.3776   13.2380 C.ar    1  UNL1        0.1764
     12 C          65.3925   92.8415   12.0967 C.ar    1  UNL1        0.1761
     13 C          64.7457   91.4925   12.2051 C.ar    1  UNL1        0.0359
     14 O          65.4054   93.8630   10.9984 O.3     1  UNL1       -0.4346
     15 C          66.2260   95.0304   11.4608 C.3     1  UNL1        0.4294
     16 O          66.7202   94.7304   12.8449 O.3     1  UNL1       -0.4346
     17 C          64.7131   86.4061   14.9407 C.3     1  UNL1        0.0377
     18 C          64.0318   85.2575   14.2574 C.ar    1  UNL1       -0.0184
     19 C          63.3469   85.4682   12.9396 C.ar    1  UNL1       -0.0009
     20 C          62.6657   84.3197   12.2564 C.ar    1  UNL1        0.0399
     21 C          62.6694   82.9606   12.8909 C.ar    1  UNL1        0.1764
     22 C          63.3543   82.7499   14.2087 C.ar    1  UNL1        0.1761
     23 C          64.0355   83.8984   14.8919 C.ar    1  UNL1        0.0359
     24 O          63.1939   81.3078   14.5891 O.3     1  UNL1       -0.4346
     25 C          62.4099   80.6272   13.5065 C.3     1  UNL1        0.4294
     26 O          62.0857   81.6487   12.4570 O.3     1  UNL1       -0.4346
@<TRIPOS>BOND
     1     1     2    2
     2     2     3    1
     3     3     4    1
     4     4     5    1
     5     5     7    1
     6     7     8    1
     7     8     9   ar
     8     9    10   ar
     9    10    11   ar
    10    11    12   ar
    11    12    13   ar
    12    12    14    1
    13    14    15    1
    14    15    16    1
    15     5     6    1
    16     6    17    1
    17    17    18    1
    18    18    19   ar
    19    19    20   ar
    20    20    21   ar
    21    21    22   ar
    22    22    23   ar
    23    22    24    1
    24    24    25    1
    25    25    26    1
    26     6     2    1
    27    23    18   ar
    28    13     8   ar
    29    26    21    1
    30    16    11    1
@<TRIPOS>MOLECULE
*****
 26 30 0 0 0
SMALL
GASTEIGER

@<TRIPOS>ATOM
      1 O          60.0783   89.2654    8.7815 O.2     1  UNL1       -0.2501
      2 C          61.1597   89.5872    9.7698 C.2     1  UNL1        0.3169
      3 O          61.9567   90.8569    9.8224 O.3     1  UNL1       -0.4485
      4 C          62.9237   90.7502   10.9642 C.3     1  UNL1        0.2092
      5 C          62.7243   89.4146   11.6172 C.3     1  UNL1        0.0591
      6 C          61.6342   88.6958   10.8791 C.3     1  UNL1        0.1073
      7 C          63.4821   88.8900   12.8007 C.3     1  UNL1        0.0307
      8 C          64.0307   89.8419   13.8220 C.ar    1  UNL1       -0.0188
      9 C          63.2945   90.0666   15.1094 C.ar    1  UNL1       -0.0009
     10 C          63.8430   91.0184   16.1308 C.ar    1  UNL1        0.0399
     11 C          65.1277   91.7455   15.8647 C.ar    1  UNL1        0.1764
     12 C          65.8639   91.5208   14.5772 C.ar    1  UNL1        0.1761
     13 C          65.3154   90.5690   13.5559 C.ar    1  UNL1        0.0359
     14 O          67.0981   92.3733   14.5940 O.3     1  UNL1       -0.4346
     15 C          67.1246   93.1248   15.8919 C.3     1  UNL1        0.4294
     16 O          65.9069   92.7369   16.6772 O.3     1  UNL1       -0.4346
     17 C          61.1104   87.3261   11.1947 C.3     1  UNL1        0.0377
     18 C          61.9685   86.1203   10.9503 C.ar    1  UNL1       -0.0184
     19 C          62.3938   85.7729    9.5545 C.ar    1  UNL1       -0.0009
     20 C          63.2518   84.5671    9.3101 C.ar    1  UNL1        0.0399
     21 C          63.6847   83.7088   10.4615 C.ar    1  UNL1        0.1764
     22 C          63.2594   84.0562   11.8574 C.ar    1  UNL1        0.1761
     23 C          62.4014   85.2620   12.1018 C.ar    1  UNL1        0.0359
     24 O          63.8369   83.0301   12.7868 O.3     1  UNL1       -0.4346
     25 C          64.6190   82.0486   11.9653 C.3     1  UNL1        0.4294
     26 O          64.5249   82.4680   10.5282 O.3     1  UNL1       -0.4346
@<TRIPOS>BOND
     1     1     2    2
     2     2     3    1
     3     3     4    1
     4     4     5    1
     5     5     7    1
     6     7     8    1
     7     8     9   ar
     8     9    10   ar
     9    10    11   ar
    10    11    12   ar
    11    12    13   ar
    12    12    14    1
    13    14    15    1
    14    15    16    1
    15     5     6    1
    16     6    17    1
    17    17    18    1
    18    18    19   ar
    19    19    20   ar
    20    20    21   ar
    21    21    22   ar
    22    22    23   ar
    23    22    24    1
    24    24    25    1
    25    25    26    1
    26     6     2    1
    27    23    18   ar
    28    13     8   ar
    29    26    21    1
    30    16    11    1
@<TRIPOS>MOLECULE
*****
 26 30 0 0 0
SMALL
GASTEIGER

@<TRIPOS>ATOM
      1 O          67.2064   91.5940   15.1195 O.2     1  UNL1       -0.2501
      2 C          66.2783   91.6471   13.9425 C.2     1  UNL1        0.3169
      3 O          66.6549   92.0178   12.5386 O.3     1  UNL1       -0.4485
      4 C          65.4199   91.9386   11.6910 C.3     1  UNL1        0.2092
      5 C          64.2800   91.5188   12.5710 C.3     1  UNL1        0.0591
      6 C          64.8104   91.3386   13.9624 C.3     1  UNL1        0.1073
      7 C          62.8590   91.3150   12.1358 C.3     1  UNL1        0.0307
      8 C          62.4597   90.0417   11.4506 C.ar    1  UNL1       -0.0188
      9 C          61.6585   90.0912   10.1836 C.ar    1  UNL1       -0.0009
     10 C          61.2592   88.8180    9.4984 C.ar    1  UNL1        0.0399
     11 C          61.6611   87.4952   10.0805 C.ar    1  UNL1        0.1764
     12 C          62.4623   87.4457   11.3476 C.ar    1  UNL1        0.1761
     13 C          62.8616   88.7189   12.0327 C.ar    1  UNL1        0.0359
     14 O          62.7114   86.0049   11.6826 O.3     1  UNL1       -0.4346
     15 C          62.0641   85.1640   10.6225 C.3     1  UNL1        0.4294
     16 O          61.4150   86.0851    9.6323 O.3     1  UNL1       -0.4346
     17 C          64.0131   90.9230   15.1630 C.3     1  UNL1        0.0377
     18 C          63.8590   89.4681   15.4941 C.ar    1  UNL1       -0.0184
     19 C          63.0856   89.0536   16.7107 C.ar    1  UNL1       -0.0009
     20 C          62.9315   87.5987   17.0417 C.ar    1  UNL1        0.0399
     21 C          63.5508   86.5584   16.1562 C.ar    1  UNL1        0.1764
     22 C          64.3242   86.9729   14.9396 C.ar    1  UNL1        0.1761
     23 C          64.4783   88.4278   14.6086 C.ar    1  UNL1        0.0359
     24 O          64.8186   85.7309   14.2592 O.3     1  UNL1       -0.4346
     25 C          64.3508   84.5488   15.0553 C.3     1  UNL1        0.4294
     26 O          63.5673   85.0602   16.2277 O.3     1  UNL1       -0.4346
@<TRIPOS>BOND
     1     1     2    2
     2     2     3    1
     3     3     4    1
     4     4     5    1
     5     5     7    1
     6     7     8    1
     7     8     9   ar
     8     9    10   ar
     9    10    11   ar
    10    11    12   ar
    11    12    13   ar
    12    12    14    1
    13    14    15    1
    14    15    16    1
    15     5     6    1
    16     6    17    1
    17    17    18    1
    18    18    19   ar
    19    19    20   ar
    20    20    21   ar
    21    21    22   ar
    22    22    23   ar
    23    22    24    1
    24    24    25    1
    25    25    26    1
    26     6     2    1
    27    23    18   ar
    28    13     8   ar
    29    26    21    1
    30    16    11    1
