@<TRIPOS>MOLECULE
*****
 29 31 0 0 0
SMALL
GASTEIGER

@<TRIPOS>ATOM
      1 C          64.5862   84.7773   15.3230 C.3     1  UNL1        0.0232
      2 C          64.1399   85.8058   14.3265 C.3     1  UNL1        0.0927
      3 C          64.3800   87.2622   14.5932 C.3     1  UNL1        0.1131
      4 N          63.9336   88.2907   13.5967 N.am    1  UNL1       -0.2761
      5 C          64.1738   89.7472   13.8634 C.2     1  UNL1        0.2258
      6 O          64.8603   90.1751   15.1266 O.2     1  UNL1       -0.2749
      7 C          63.2472   87.8628   12.3336 C.3     1  UNL1        0.1148
      8 C          63.0070   86.4063   12.0669 C.3     1  UNL1        0.1123
      9 N          63.4534   85.3779   13.0634 N.pl3   1  UNL1       -0.3057
     10 C          63.2132   83.9214   12.7967 C.ar    1  UNL1        0.0488
     11 C          63.8972   83.2472   11.6444 C.ar    1  UNL1        0.0154
     12 C          63.6571   81.7908   11.3777 C.ar    1  UNL1        0.0135
     13 C          62.7329   81.0085   12.2632 C.ar    1  UNL1        0.0683
     14 CL         62.4928   79.5521   11.9965 Cl      1  UNL1       -0.0814
     15 C          62.0489   81.6827   13.4154 C.ar    1  UNL1        0.0694
     16 CL         61.1248   80.9005   14.3009 Cl      1  UNL1       -0.0813
     17 C          62.2891   83.1392   13.6822 C.ar    1  UNL1        0.0268
     18 C          63.7275   90.7757   12.8669 C.3     1  UNL1        0.0874
     19 C          64.4290   92.0992   12.7899 C.3     1  UNL1        0.0365
     20 C          65.0882   92.5254   11.5116 C.3     1  UNL1        0.1276
     21 C          64.0147   91.6997   10.8667 C.3     1  UNL1        0.0291
     22 N          65.5229   92.7789   10.0986 N.am    1  UNL1       -0.2839
     23 C          66.7274   93.6722   10.1374 C.2     1  UNL1        0.3068
     24 O          67.4886   94.1781    8.9480 O.2     1  UNL1       -0.2524
     25 N          67.0370   93.9707   11.5745 N.am    1  UNL1       -0.2384
     26 C          66.0239   93.2619   12.4238 C.2     1  UNL1        0.2451
     27 O          65.9581   93.2856   13.9221 O.2     1  UNL1       -0.2730
     28 H          65.0932   92.4217    9.2880 H       1  UNL1        0.1513
     29 H          67.7754   94.5330   11.9026 H       1  UNL1        0.1591
@<TRIPOS>BOND
     1     2     1    1
     2     2     3    1
     3     3     4    1
     4     4     5   am
     5     5     6    2
     6     5    18    1
     7    18    19    1
     8    19    20    1
     9    20    21    1
    10    20    22    1
    11    22    23   am
    12    23    24    2
    13    23    25   am
    14    25    26   am
    15    26    27    2
    16     4     7    1
    17     7     8    1
    18     8     9    1
    19     9    10    1
    20    10    11   ar
    21    11    12   ar
    22    12    13   ar
    23    13    14    1
    24    13    15   ar
    25    15    16    1
    26    15    17   ar
    27     9     2    1
    28    17    10   ar
    29    26    20    1
    30    22    28    1
    31    25    29    1
@<TRIPOS>MOLECULE
*****
 29 31 0 0 0
SMALL
GASTEIGER

@<TRIPOS>ATOM
      1 C          61.6504   85.6481   10.8798 C.3     1  UNL1        0.0232
      2 C          62.5246   86.2773   11.9238 C.3     1  UNL1        0.0927
      3 C          62.7734   87.7563   11.9017 C.3     1  UNL1        0.1131
      4 N          63.6476   88.3855   12.9456 N.am    1  UNL1       -0.2761
      5 C          63.8964   89.8646   12.9234 C.2     1  UNL1        0.2258
      6 O          63.2711   90.7145   11.8573 O.2     1  UNL1       -0.2749
      7 C          64.2729   87.5357   14.0118 C.3     1  UNL1        0.1148
      8 C          64.0241   86.0567   14.0340 C.3     1  UNL1        0.1123
      9 N          63.1499   85.4275   12.9900 N.pl3   1  UNL1       -0.3057
     10 C          62.9011   83.9484   13.0122 C.ar    1  UNL1        0.0488
     11 C          62.3915   83.2923   14.2611 C.ar    1  UNL1        0.0154
     12 C          62.1427   81.8133   14.2834 C.ar    1  UNL1        0.0135
     13 C          62.4034   80.9903   13.0566 C.ar    1  UNL1        0.0683
     14 CL         62.1546   79.5113   13.0789 Cl      1  UNL1       -0.0814
     15 C          62.9130   81.6464   11.8077 C.ar    1  UNL1        0.0694
     16 CL         63.1738   80.8235   10.5810 Cl      1  UNL1       -0.0813
     17 C          63.1619   83.1255   11.7855 C.ar    1  UNL1        0.0268
     18 C          64.7706   90.4938   13.9674 C.3     1  UNL1        0.0874
     19 C          64.9868   91.9781   13.9694 C.3     1  UNL1        0.0365
     20 C          66.3512   92.5370   14.2454 C.3     1  UNL1        0.1276
     21 C          66.5589   92.3362   12.7735 C.3     1  UNL1        0.0291
     22 N          67.7590   93.0538   14.2137 N.am    1  UNL1       -0.2839
     23 C          68.1361   93.4572   15.6085 C.2     1  UNL1        0.3068
     24 O          69.4562   94.0279   16.0347 O.2     1  UNL1       -0.2524
     25 N          66.9614   93.1897   16.5020 N.am    1  UNL1       -0.2384
     26 C          65.8583   92.6209   15.6597 C.2     1  UNL1        0.2451
     27 O          64.5006   92.2086   16.1461 O.2     1  UNL1       -0.2730
     28 H          68.3344   93.1171   13.4174 H       1  UNL1        0.1513
     29 H          66.9215   93.3578   17.4712 H       1  UNL1        0.1591
@<TRIPOS>BOND
     1     2     1    1
     2     2     3    1
     3     3     4    1
     4     4     5   am
     5     5     6    2
     6     5    18    1
     7    18    19    1
     8    19    20    1
     9    20    21    1
    10    20    22    1
    11    22    23   am
    12    23    24    2
    13    23    25   am
    14    25    26   am
    15    26    27    2
    16     4     7    1
    17     7     8    1
    18     8     9    1
    19     9    10    1
    20    10    11   ar
    21    11    12   ar
    22    12    13   ar
    23    13    14    1
    24    13    15   ar
    25    15    16    1
    26    15    17   ar
    27     9     2    1
    28    17    10   ar
    29    26    20    1
    30    22    28    1
    31    25    29    1
@<TRIPOS>MOLECULE
*****
 29 31 0 0 0
SMALL
GASTEIGER

@<TRIPOS>ATOM
      1 C          61.5287   85.9060   10.0180 C.3     1  UNL1        0.0232
      2 C          62.2569   86.6103   11.1242 C.3     1  UNL1        0.0927
      3 C          62.2893   88.1093   11.1655 C.3     1  UNL1        0.1131
      4 N          63.0176   88.8136   12.2717 N.am    1  UNL1       -0.2761
      5 C          63.0499   90.3127   12.3129 C.2     1  UNL1        0.2258
      6 O          62.3541   91.1075   11.2480 O.2     1  UNL1       -0.2749
      7 C          63.7134   88.0188   13.3366 C.3     1  UNL1        0.1148
      8 C          63.6810   86.5198   13.2954 C.3     1  UNL1        0.1123
      9 N          62.9528   85.8155   12.1892 N.pl3   1  UNL1       -0.3057
     10 C          62.9204   84.3164   12.1479 C.ar    1  UNL1        0.0488
     11 C          63.5355   83.5844   10.9921 C.ar    1  UNL1        0.0154
     12 C          63.5032   82.0854   10.9508 C.ar    1  UNL1        0.0135
     13 C          62.8557   81.3182   12.0654 C.ar    1  UNL1        0.0683
     14 CL         62.8233   79.8191   12.0241 Cl      1  UNL1       -0.0814
     15 C          62.2405   82.0501   13.2212 C.ar    1  UNL1        0.0694
     16 CL         61.5930   81.2830   14.3357 Cl      1  UNL1       -0.0813
     17 C          62.2729   83.5492   13.2624 C.ar    1  UNL1        0.0268
     18 C          63.7782   91.0170   13.4192 C.3     1  UNL1        0.0874
     19 C          65.1201   91.6347   13.1594 C.3     1  UNL1        0.0365
     20 C          66.0934   91.8154   14.2865 C.3     1  UNL1        0.1276
     21 C          64.9451   91.3671   15.1412 C.3     1  UNL1        0.0291
     22 N          66.8265   91.9024   15.5922 N.am    1  UNL1       -0.2839
     23 C          68.2245   92.3667   15.3087 C.2     1  UNL1        0.3068
     24 O          69.3024   92.5916   16.3274 O.2     1  UNL1       -0.2524
     25 N          68.3552   92.5667   13.8279 N.am    1  UNL1       -0.2384
     26 C          67.0381   92.2259   13.1961 C.2     1  UNL1        0.2451
     27 O          66.7215   92.2853   11.7311 O.2     1  UNL1       -0.2730
     28 H          66.4554   91.6918   16.4794 H       1  UNL1        0.1513
     29 H          69.1636   92.8685   13.3539 H       1  UNL1        0.1591
@<TRIPOS>BOND
     1     2     1    1
     2     2     3    1
     3     3     4    1
     4     4     5   am
     5     5     6    2
     6     5    18    1
     7    18    19    1
     8    19    20    1
     9    20    21    1
    10    20    22    1
    11    22    23   am
    12    23    24    2
    13    23    25   am
    14    25    26   am
    15    26    27    2
    16     4     7    1
    17     7     8    1
    18     8     9    1
    19     9    10    1
    20    10    11   ar
    21    11    12   ar
    22    12    13   ar
    23    13    14    1
    24    13    15   ar
    25    15    16    1
    26    15    17   ar
    27     9     2    1
    28    17    10   ar
    29    26    20    1
    30    22    28    1
    31    25    29    1
@<TRIPOS>MOLECULE
*****
 29 31 0 0 0
SMALL
GASTEIGER

@<TRIPOS>ATOM
      1 C          63.4641   90.9786   16.6284 C.3     1  UNL1        0.0232
      2 C          63.6795   89.6576   15.9511 C.3     1  UNL1        0.0927
      3 C          63.1751   88.3970   16.5884 C.3     1  UNL1        0.1131
      4 N          63.3905   87.0760   15.9111 N.am    1  UNL1       -0.2761
      5 C          62.8860   85.8153   16.5485 C.2     1  UNL1        0.2258
      6 O          62.1662   85.8756   17.8631 O.2     1  UNL1       -0.2749
      7 C          64.1103   87.0157   14.5966 C.3     1  UNL1        0.1148
      8 C          64.6148   88.2764   13.9593 C.3     1  UNL1        0.1123
      9 N          64.3993   89.5974   14.6365 N.pl3   1  UNL1       -0.3057
     10 C          64.9038   90.8581   13.9991 C.ar    1  UNL1        0.0488
     11 C          64.4040   91.2658   12.6449 C.ar    1  UNL1        0.0154
     12 C          64.9084   92.5264   12.0075 C.ar    1  UNL1        0.0135
     13 C          65.9127   93.3794   12.7244 C.ar    1  UNL1        0.0683
     14 CL         66.4171   94.6401   12.0870 Cl      1  UNL1       -0.0814
     15 C          66.4126   92.9717   14.0786 C.ar    1  UNL1        0.0694
     16 CL         67.4169   93.8246   14.7954 Cl      1  UNL1       -0.0813
     17 C          65.9081   91.7110   14.7160 C.ar    1  UNL1        0.0268
     18 C          63.1014   84.4944   15.8713 C.3     1  UNL1        0.0874
     19 C          62.5128   84.2422   14.5149 C.3     1  UNL1        0.0365
     20 C          63.2960   83.4802   13.4873 C.3     1  UNL1        0.1276
     21 C          63.7584   82.6751   14.6655 C.3     1  UNL1        0.0291
     22 N          64.1759   82.5499   12.7060 N.am    1  UNL1       -0.2839
     23 C          64.0936   82.9393   11.2597 C.2     1  UNL1        0.3068
     24 O          64.8153   82.2744   10.1252 O.2     1  UNL1       -0.2524
     25 N          63.1628   84.1102   11.1472 N.am    1  UNL1       -0.2384
     26 C          62.6699   84.4445   12.5239 C.2     1  UNL1        0.2451
     27 O          61.7181   85.5491   12.8754 O.2     1  UNL1       -0.2730
     28 H          64.7131   81.8131   13.0773 H       1  UNL1        0.1513
     29 H          62.9184   84.5773   10.3157 H       1  UNL1        0.1591
@<TRIPOS>BOND
     1     2     1    1
     2     2     3    1
     3     3     4    1
     4     4     5   am
     5     5     6    2
     6     5    18    1
     7    18    19    1
     8    19    20    1
     9    20    21    1
    10    20    22    1
    11    22    23   am
    12    23    24    2
    13    23    25   am
    14    25    26   am
    15    26    27    2
    16     4     7    1
    17     7     8    1
    18     8     9    1
    19     9    10    1
    20    10    11   ar
    21    11    12   ar
    22    12    13   ar
    23    13    14    1
    24    13    15   ar
    25    15    16    1
    26    15    17   ar
    27     9     2    1
    28    17    10   ar
    29    26    20    1
    30    22    28    1
    31    25    29    1
@<TRIPOS>MOLECULE
*****
 29 31 0 0 0
SMALL
GASTEIGER

@<TRIPOS>ATOM
      1 C          62.8694   88.0287   12.7910 C.3     1  UNL1        0.0232
      2 C          63.3342   89.3479   12.2489 C.3     1  UNL1        0.0927
      3 C          64.2479   90.2139   13.0643 C.3     1  UNL1        0.1131
      4 N          64.7127   91.5330   12.5222 N.am    1  UNL1       -0.2761
      5 C          65.6265   92.3990   13.3378 C.2     1  UNL1        0.2258
      6 O          66.0756   91.9459   14.6953 O.2     1  UNL1       -0.2749
      7 C          64.2636   91.9862   11.1647 C.3     1  UNL1        0.1148
      8 C          63.3498   91.1202   10.3493 C.3     1  UNL1        0.1123
      9 N          62.8851   89.8010   10.8914 N.pl3   1  UNL1       -0.3057
     10 C          61.9713   88.9350   10.0758 C.ar    1  UNL1        0.0488
     11 C          60.5995   89.4230    9.7153 C.ar    1  UNL1        0.0154
     12 C          59.6856   88.5571    8.8998 C.ar    1  UNL1        0.0135
     13 C          60.1436   87.2030    8.4448 C.ar    1  UNL1        0.0683
     14 CL         59.2298   86.3371    7.6293 Cl      1  UNL1       -0.0814
     15 C          61.5155   86.7150    8.8053 C.ar    1  UNL1        0.0694
     16 CL         61.9735   85.3611    8.3503 Cl      1  UNL1       -0.0813
     17 C          62.4293   87.5811    9.6208 C.ar    1  UNL1        0.0268
     18 C          66.0912   93.7182   12.7957 C.3     1  UNL1        0.0874
     19 C          66.9387   93.7642   11.5589 C.3     1  UNL1        0.0365
     20 C          66.7227   94.8450   10.5415 C.3     1  UNL1        0.1276
     21 C          66.1321   95.5972   11.6971 C.3     1  UNL1        0.0291
     22 N          66.3832   96.0831    9.7657 N.am    1  UNL1       -0.2839
     23 C          66.8092   95.8701    8.3432 C.2     1  UNL1        0.3068
     24 O          66.6588   96.8540    7.2211 O.2     1  UNL1       -0.2524
     25 N          67.4119   94.5004    8.2400 N.am    1  UNL1       -0.2384
     26 C          67.3585   93.8669    9.5986 C.2     1  UNL1        0.2451
     27 O          67.8538   92.4959    9.9522 O.2     1  UNL1       -0.2730
     28 H          65.9559   96.8932   10.1266 H       1  UNL1        0.1513
     29 H          67.7783   94.0894    7.4239 H       1  UNL1        0.1591
@<TRIPOS>BOND
     1     2     1    1
     2     2     3    1
     3     3     4    1
     4     4     5   am
     5     5     6    2
     6     5    18    1
     7    18    19    1
     8    19    20    1
     9    20    21    1
    10    20    22    1
    11    22    23   am
    12    23    24    2
    13    23    25   am
    14    25    26   am
    15    26    27    2
    16     4     7    1
    17     7     8    1
    18     8     9    1
    19     9    10    1
    20    10    11   ar
    21    11    12   ar
    22    12    13   ar
    23    13    14    1
    24    13    15   ar
    25    15    16    1
    26    15    17   ar
    27     9     2    1
    28    17    10   ar
    29    26    20    1
    30    22    28    1
    31    25    29    1
@<TRIPOS>MOLECULE
*****
 29 31 0 0 0
SMALL
GASTEIGER

@<TRIPOS>ATOM
      1 C          62.8194   86.9437   12.6092 C.3     1  UNL1        0.0232
      2 C          63.1337   88.3620   12.2356 C.3     1  UNL1        0.0927
      3 C          63.8943   89.2373   13.1871 C.3     1  UNL1        0.1131
      4 N          64.2085   90.6556   12.8136 N.am    1  UNL1       -0.2761
      5 C          64.9692   91.5309   13.7651 C.2     1  UNL1        0.2258
      6 O          65.4155   90.9878   15.0902 O.2     1  UNL1       -0.2749
      7 C          63.7621   91.1987   11.4885 C.3     1  UNL1        0.1148
      8 C          63.0015   90.3235   10.5371 C.3     1  UNL1        0.1123
      9 N          62.6873   88.9051   10.9106 N.pl3   1  UNL1       -0.3057
     10 C          61.9266   88.0298    9.9591 C.ar    1  UNL1        0.0488
     11 C          60.4623   88.2634    9.7325 C.ar    1  UNL1        0.0154
     12 C          59.7017   87.3882    8.7810 C.ar    1  UNL1        0.0135
     13 C          60.4053   86.2794    8.0560 C.ar    1  UNL1        0.0683
     14 CL         59.6446   85.4042    7.1045 Cl      1  UNL1       -0.0814
     15 C          61.8696   86.0458    8.2826 C.ar    1  UNL1        0.0694
     16 CL         62.5732   84.9371    7.5577 Cl      1  UNL1       -0.0813
     17 C          62.6302   86.9211    9.2341 C.ar    1  UNL1        0.0268
     18 C          65.2834   92.9492   13.3916 C.3     1  UNL1        0.0874
     19 C          66.6568   93.3111   12.9092 C.3     1  UNL1        0.0365
     20 C          66.9940   93.1977   11.4520 C.3     1  UNL1        0.1276
     21 C          65.8217   94.1158   11.2707 C.3     1  UNL1        0.0291
     22 N          67.0861   93.2763    9.9569 N.am    1  UNL1       -0.2839
     23 C          68.2449   92.4304    9.5188 C.2     1  UNL1        0.3068
     24 O          68.6997   92.2224    8.1046 O.2     1  UNL1       -0.2524
     25 N          68.8689   91.8291   10.7431 N.am    1  UNL1       -0.2384
     26 C          68.0958   92.3033   11.9379 C.2     1  UNL1        0.2451
     27 O          68.3755   91.9458   13.3676 O.2     1  UNL1       -0.2730
     28 H          66.4906   93.7924    9.3668 H       1  UNL1        0.1513
     29 H          69.6489   91.2286   10.7596 H       1  UNL1        0.1591
@<TRIPOS>BOND
     1     2     1    1
     2     2     3    1
     3     3     4    1
     4     4     5   am
     5     5     6    2
     6     5    18    1
     7    18    19    1
     8    19    20    1
     9    20    21    1
    10    20    22    1
    11    22    23   am
    12    23    24    2
    13    23    25   am
    14    25    26   am
    15    26    27    2
    16     4     7    1
    17     7     8    1
    18     8     9    1
    19     9    10    1
    20    10    11   ar
    21    11    12   ar
    22    12    13   ar
    23    13    14    1
    24    13    15   ar
    25    15    16    1
    26    15    17   ar
    27     9     2    1
    28    17    10   ar
    29    26    20    1
    30    22    28    1
    31    25    29    1
@<TRIPOS>MOLECULE
*****
 29 31 0 0 0
SMALL
GASTEIGER

@<TRIPOS>ATOM
      1 C          62.8020   84.8963   12.1143 C.3     1  UNL1        0.0232
      2 C          62.9114   86.3917   12.1586 C.3     1  UNL1        0.0927
      3 C          63.3278   87.0760   13.4268 C.3     1  UNL1        0.1131
      4 N          63.4372   88.5713   13.4712 N.am    1  UNL1       -0.2761
      5 C          63.8536   89.2556   14.7395 C.2     1  UNL1        0.2258
      6 O          64.1606   88.4445   15.9633 O.2     1  UNL1       -0.2749
      7 C          63.1303   89.3824   12.2473 C.3     1  UNL1        0.1148
      8 C          62.7139   88.6981   10.9791 C.3     1  UNL1        0.1123
      9 N          62.6045   87.2028   10.9348 N.pl3   1  UNL1       -0.3057
     10 C          62.1881   86.5185    9.6665 C.ar    1  UNL1        0.0488
     11 C          63.1542   85.6282    8.9426 C.ar    1  UNL1        0.0154
     12 C          62.7379   84.9440    7.6744 C.ar    1  UNL1        0.0135
     13 C          61.3553   85.1500    7.1300 C.ar    1  UNL1        0.0683
     14 CL         60.9390   84.4658    5.8618 Cl      1  UNL1       -0.0814
     15 C          60.3892   86.0403    7.8539 C.ar    1  UNL1        0.0694
     16 CL         59.0068   86.2463    7.3095 Cl      1  UNL1       -0.0813
     17 C          60.8056   86.7246    9.1221 C.ar    1  UNL1        0.0268
     18 C          63.9630   90.7509   14.7838 C.3     1  UNL1        0.0874
     19 C          65.1829   91.4302   14.2358 C.3     1  UNL1        0.0365
     20 C          66.0309   92.2851   15.1302 C.3     1  UNL1        0.1276
     21 C          64.9382   92.0478   16.1301 C.3     1  UNL1        0.0291
     22 N          66.6504   93.0904   16.2337 N.am    1  UNL1       -0.2839
     23 C          67.9488   93.6468   15.7288 C.2     1  UNL1        0.3068
     24 O          68.8976   94.5126   16.5035 O.2     1  UNL1       -0.2524
     25 N          68.1316   93.1853   14.3134 N.am    1  UNL1       -0.2384
     26 C          66.9463   92.3438   13.9434 C.2     1  UNL1        0.2451
     27 O          66.7168   91.6778   12.6191 O.2     1  UNL1       -0.2730
     28 H          66.2714   93.2294   17.1317 H       1  UNL1        0.1513
     29 H          68.8955   93.3975   13.7296 H       1  UNL1        0.1591
@<TRIPOS>BOND
     1     2     1    1
     2     2     3    1
     3     3     4    1
     4     4     5   am
     5     5     6    2
     6     5    18    1
     7    18    19    1
     8    19    20    1
     9    20    21    1
    10    20    22    1
    11    22    23   am
    12    23    24    2
    13    23    25   am
    14    25    26   am
    15    26    27    2
    16     4     7    1
    17     7     8    1
    18     8     9    1
    19     9    10    1
    20    10    11   ar
    21    11    12   ar
    22    12    13   ar
    23    13    14    1
    24    13    15   ar
    25    15    16    1
    26    15    17   ar
    27     9     2    1
    28    17    10   ar
    29    26    20    1
    30    22    28    1
    31    25    29    1
@<TRIPOS>MOLECULE
*****
 29 31 0 0 0
SMALL
GASTEIGER

@<TRIPOS>ATOM
      1 C          63.3553   91.1983   16.5750 C.3     1  UNL1        0.0232
      2 C          63.6641   89.8431   16.0110 C.3     1  UNL1        0.0927
      3 C          63.1767   88.6100   16.7124 C.3     1  UNL1        0.1131
      4 N          63.4855   87.2548   16.1484 N.am    1  UNL1       -0.2761
      5 C          62.9981   86.0217   16.8498 C.2     1  UNL1        0.2258
      6 O          62.2020   86.1438   18.1152 O.2     1  UNL1       -0.2749
      7 C          64.2816   87.1327   14.8830 C.3     1  UNL1        0.1148
      8 C          64.7690   88.3658   14.1816 C.3     1  UNL1        0.1123
      9 N          64.4602   89.7210   14.7456 N.pl3   1  UNL1       -0.3057
     10 C          64.9476   90.9541   14.0442 C.ar    1  UNL1        0.0488
     11 C          65.8210   91.9341   14.7700 C.ar    1  UNL1        0.0154
     12 C          66.3084   93.1671   14.0686 C.ar    1  UNL1        0.0135
     13 C          65.9224   93.4203   12.6414 C.ar    1  UNL1        0.0683
     14 CL         66.4098   94.6533   11.9400 Cl      1  UNL1       -0.0814
     15 C          65.0490   92.4403   11.9155 C.ar    1  UNL1        0.0694
     16 CL         64.6630   92.6933   10.4883 Cl      1  UNL1       -0.0813
     17 C          64.5616   91.2072   12.6170 C.ar    1  UNL1        0.0268
     18 C          63.3069   84.6665   16.2858 C.3     1  UNL1        0.0874
     19 C          63.2050   84.4280   14.8084 C.3     1  UNL1        0.0365
     20 C          62.7523   83.0938   14.2935 C.3     1  UNL1        0.1276
     21 C          61.5361   83.3599   15.1302 C.3     1  UNL1        0.0291
     22 N          62.0454   81.8153   13.9536 N.am    1  UNL1       -0.2839
     23 C          62.9194   81.0380   13.0144 C.2     1  UNL1        0.3068
     24 O          62.6021   79.6978   12.4201 O.2     1  UNL1       -0.2524
     25 N          64.1665   81.8361   12.7740 N.am    1  UNL1       -0.2384
     26 C          64.0632   83.1067   13.5645 C.2     1  UNL1        0.2451
     27 O          65.0905   84.1985   13.6168 O.2     1  UNL1       -0.2730
     28 H          61.1628   81.5354   14.2881 H       1  UNL1        0.1513
     29 H          64.9204   81.5724   12.1984 H       1  UNL1        0.1591
@<TRIPOS>BOND
     1     2     1    1
     2     2     3    1
     3     3     4    1
     4     4     5   am
     5     5     6    2
     6     5    18    1
     7    18    19    1
     8    19    20    1
     9    20    21    1
    10    20    22    1
    11    22    23   am
    12    23    24    2
    13    23    25   am
    14    25    26   am
    15    26    27    2
    16     4     7    1
    17     7     8    1
    18     8     9    1
    19     9    10    1
    20    10    11   ar
    21    11    12   ar
    22    12    13   ar
    23    13    14    1
    24    13    15   ar
    25    15    16    1
    26    15    17   ar
    27     9     2    1
    28    17    10   ar
    29    26    20    1
    30    22    28    1
    31    25    29    1
@<TRIPOS>MOLECULE
*****
 29 31 0 0 0
SMALL
GASTEIGER

@<TRIPOS>ATOM
      1 C          62.7851   84.9587   11.9603 C.3     1  UNL1        0.0232
      2 C          62.9067   86.4536   11.9327 C.3     1  UNL1        0.0927
      3 C          63.3362   87.1939   13.1645 C.3     1  UNL1        0.1131
      4 N          63.4578   88.6887   13.1369 N.am    1  UNL1       -0.2761
      5 C          63.8873   89.4291   14.3688 C.2     1  UNL1        0.2258
      6 O          64.1952   88.6746   15.6282 O.2     1  UNL1       -0.2749
      7 C          63.1499   89.4432   11.8776 C.3     1  UNL1        0.1148
      8 C          62.7204   88.7028   10.6458 C.3     1  UNL1        0.1123
      9 N          62.5988   87.2080   10.6734 N.pl3   1  UNL1       -0.3057
     10 C          62.1693   86.4676    9.4415 C.ar    1  UNL1        0.0488
     11 C          63.1423   85.5819    8.7213 C.ar    1  UNL1        0.0154
     12 C          62.7129   84.8415    7.4895 C.ar    1  UNL1        0.0135
     13 C          61.3103   84.9869    6.9778 C.ar    1  UNL1        0.0683
     14 CL         60.8808   84.2466    5.7460 Cl      1  UNL1       -0.0814
     15 C          60.3373   85.8727    7.6980 C.ar    1  UNL1        0.0694
     16 CL         58.9348   86.0181    7.1863 Cl      1  UNL1       -0.0813
     17 C          60.7668   86.6130    8.9299 C.ar    1  UNL1        0.0268
     18 C          64.0090   90.9239   14.3413 C.3     1  UNL1        0.0874
     19 C          65.3644   91.5662   14.3408 C.3     1  UNL1        0.0365
     20 C          66.0370   91.8976   13.0417 C.3     1  UNL1        0.1276
     21 C          64.6333   92.0444   12.5335 C.3     1  UNL1        0.0291
     22 N          66.4160   92.2596   11.6362 N.am    1  UNL1       -0.2839
     23 C          67.9134   92.2672   11.5474 C.2     1  UNL1        0.3068
     24 O          68.7225   92.5776   10.3230 O.2     1  UNL1       -0.2524
     25 N          68.4597   91.9099   12.8979 N.am    1  UNL1       -0.2384
     26 C          67.3000   91.6814   13.8214 C.2     1  UNL1        0.2451
     27 O          67.3880   91.3032   15.2702 O.2     1  UNL1       -0.2730
     28 H          65.7917   92.4575   10.9012 H       1  UNL1        0.1513
     29 H          69.4122   91.8379   13.1363 H       1  UNL1        0.1591
@<TRIPOS>BOND
     1     2     1    1
     2     2     3    1
     3     3     4    1
     4     4     5   am
     5     5     6    2
     6     5    18    1
     7    18    19    1
     8    19    20    1
     9    20    21    1
    10    20    22    1
    11    22    23   am
    12    23    24    2
    13    23    25   am
    14    25    26   am
    15    26    27    2
    16     4     7    1
    17     7     8    1
    18     8     9    1
    19     9    10    1
    20    10    11   ar
    21    11    12   ar
    22    12    13   ar
    23    13    14    1
    24    13    15   ar
    25    15    16    1
    26    15    17   ar
    27     9     2    1
    28    17    10   ar
    29    26    20    1
    30    22    28    1
    31    25    29    1
