@<TRIPOS>MOLECULE
*****
 35 37 0 0 0
SMALL
GASTEIGER

@<TRIPOS>ATOM
      1 C          62.2575   86.5790   10.6645 C.3     1  UNL1        0.1812
      2 O          63.0122   86.4882   11.9576 O.3     1  UNL1       -0.3784
      3 H          63.5444   85.6773   11.9651 H       1  UNL1        0.2106
      4 C          61.5028   86.6698    9.3714 C.3     1  UNL1        0.4197
      5 F          60.7482   86.7606    8.0782 F       1  UNL1       -0.1676
      6 F          60.2604   87.0465   10.1229 F       1  UNL1       -0.1676
      7 F          62.7451   86.2931    8.6199 F       1  UNL1       -0.1676
      8 C          62.8637   85.2810   10.2195 C.3     1  UNL1        0.0399
      9 C          64.2025   83.6695   10.5519 C.3     1  UNL1        0.0045
     10 C          62.9033   84.1112   11.1576 C.3     1  UNL1        0.0227
     11 C          61.7384   84.6341   11.5957 C.3     1  UNL1        0.0045
     12 C          62.9429   82.9414   12.0957 C.ar    1  UNL1       -0.0056
     13 C          62.5565   81.5762   11.6088 C.ar    1  UNL1       -0.0030
     14 C          62.5961   80.4063   12.5468 C.ar    1  UNL1       -0.0002
     15 C          63.0222   80.6017   13.9718 C.ar    1  UNL1        0.0013
     16 C          63.4086   81.9669   14.4586 C.ar    1  UNL1        0.0180
     17 C          63.3689   83.1367   13.5205 C.ar    1  UNL1        0.1017
     18 S          63.7554   84.5019   14.0074 S.O2    1  UNL1        0.0101
     19 C          64.1419   85.8670   14.4942 C.3     1  UNL1        0.1816
     20 O          65.0485   84.4539   13.6225 O.2     1  UNL1       -0.1686
     21 O          62.3553   84.7233   14.4980 O.2     1  UNL1       -0.1686
     22 C          61.6514   87.8769   11.1094 C.3     1  UNL1        0.0811
     23 C          62.5327   89.0546   11.4030 C.2     1  UNL1        0.0613
     24 C          62.9989   90.0765   10.4088 C.2     1  UNL1        0.0161
     25 C          63.8570   91.0707   11.1337 C.2     1  UNL1        0.0195
     26 C          64.5882   92.2943   10.6669 C.2     1  UNL1        0.0388
     27 C          65.3836   93.1105   11.6423 C.2     1  UNL1        0.1823
     28 N          65.4477   92.7030   13.0844 N.2     1  UNL1       -0.2468
     29 C          64.7164   91.4794   13.5512 C.3     1  UNL1        0.1722
     30 C          63.9211   90.6632   12.5759 C.2     1  UNL1        0.0833
     31 N          63.1026   89.4171   12.7423 N.2     1  UNL1       -0.2519
     32 S          66.1148   94.3342   11.1754 S.O2    1  UNL1        0.0265
     33 C          66.8460   95.5579   10.7086 C.3     1  UNL1        0.1834
     34 O          66.1255   93.7940    9.7761 O.2     1  UNL1       -0.1671
     35 O          66.1041   94.8744   12.5747 O.2     1  UNL1       -0.1671
@<TRIPOS>BOND
     1     9    10    1
     2    10    11    1
     3    10     8    1
     4     8     1    1
     5     1     2    1
     6     1    22    1
     7    22    23    1
     8    23    24    2
     9    24    25    1
    10    25    26    2
    11    26    27    1
    12    27    32    1
    13    32    33    1
    14    32    34    2
    15    32    35    2
    16    27    28    2
    17    28    29    1
    18    29    30    1
    19    30    31    2
    20     1     4    1
    21     4     5    1
    22     4     6    1
    23     4     7    1
    24    10    12    1
    25    12    13   ar
    26    13    14   ar
    27    14    15   ar
    28    15    16   ar
    29    16    17   ar
    30    17    18    1
    31    18    19    1
    32    18    20    2
    33    18    21    2
    34    31    23    1
    35    17    12   ar
    36    30    25    1
    37     2     3    1
@<TRIPOS>MOLECULE
*****
 35 37 0 0 0
SMALL
GASTEIGER

@<TRIPOS>ATOM
      1 C          62.2921   86.6667   10.7300 C.3     1  UNL1        0.1812
      2 O          63.0543   86.5091   12.0122 O.3     1  UNL1       -0.3784
      3 H          63.5541   85.6780   11.9911 H       1  UNL1        0.2106
      4 C          61.5298   86.8244    9.4478 C.3     1  UNL1        0.4197
      5 F          60.7675   86.9821    8.1656 F       1  UNL1       -0.1676
      6 F          62.7491   86.4202    8.6732 F       1  UNL1       -0.1676
      7 F          60.3106   87.2286   10.2224 F       1  UNL1       -0.1676
      8 C          62.8423   85.3593   10.2421 C.3     1  UNL1        0.0399
      9 C          64.1839   83.7435   10.5406 C.3     1  UNL1        0.0045
     10 C          62.8885   84.1751   11.1616 C.3     1  UNL1        0.0227
     11 C          61.7264   84.6907   11.6155 C.3     1  UNL1        0.0045
     12 C          62.9348   82.9909   12.0812 C.ar    1  UNL1       -0.0056
     13 C          62.5437   81.6336   11.5763 C.ar    1  UNL1       -0.0030
     14 C          62.5899   80.4494   12.4959 C.ar    1  UNL1       -0.0002
     15 C          63.0273   80.6226   13.9203 C.ar    1  UNL1        0.0013
     16 C          63.4183   81.9798   14.4250 C.ar    1  UNL1        0.0180
     17 C          63.3721   83.1640   13.5055 C.ar    1  UNL1        0.1017
     18 S          63.7632   84.5213   14.0103 S.O2    1  UNL1        0.0101
     19 C          64.1544   85.8786   14.5151 C.3     1  UNL1        0.1816
     20 O          65.0525   84.4798   13.6120 O.2     1  UNL1       -0.1686
     21 O          62.3681   84.7345   14.5182 O.2     1  UNL1       -0.1686
     22 C          61.7419   87.9741   11.2179 C.3     1  UNL1        0.0811
     23 C          62.6752   89.0706   11.6380 C.2     1  UNL1        0.0613
     24 C          63.3886   89.1653   12.9542 C.2     1  UNL1        0.0161
     25 C          64.2134   90.4181   12.9454 C.2     1  UNL1        0.0195
     26 C          65.1235   91.0278   13.9700 C.2     1  UNL1        0.0388
     27 C          65.8301   92.3173   13.6730 C.2     1  UNL1        0.1823
     28 N          65.6265   92.9969   12.3515 N.2     1  UNL1       -0.2468
     29 C          64.7164   92.3872   11.3268 C.3     1  UNL1        0.1722
     30 C          64.0099   91.0978   11.6237 C.2     1  UNL1        0.0833
     31 N          63.0592   90.2649   10.8157 N.2     1  UNL1       -0.2519
     32 S          66.7401   92.9271   14.6977 S.O2    1  UNL1        0.0265
     33 C          67.6502   93.5368   15.7224 C.3     1  UNL1        0.1834
     34 O          67.8242   93.0407   13.6672 O.2     1  UNL1       -0.1671
     35 O          65.6561   92.8135   15.7282 O.2     1  UNL1       -0.1671
@<TRIPOS>BOND
     1     9    10    1
     2    10    11    1
     3    10     8    1
     4     8     1    1
     5     1     2    1
     6     1    22    1
     7    22    23    1
     8    23    24    2
     9    24    25    1
    10    25    26    2
    11    26    27    1
    12    27    32    1
    13    32    33    1
    14    32    34    2
    15    32    35    2
    16    27    28    2
    17    28    29    1
    18    29    30    1
    19    30    31    2
    20     1     4    1
    21     4     5    1
    22     4     6    1
    23     4     7    1
    24    10    12    1
    25    12    13   ar
    26    13    14   ar
    27    14    15   ar
    28    15    16   ar
    29    16    17   ar
    30    17    18    1
    31    18    19    1
    32    18    20    2
    33    18    21    2
    34    31    23    1
    35    17    12   ar
    36    30    25    1
    37     2     3    1
@<TRIPOS>MOLECULE
*****
 35 37 0 0 0
SMALL
GASTEIGER

@<TRIPOS>ATOM
      1 C          63.7956   86.8281   15.5387 C.3     1  UNL1        0.1812
      2 O          64.2187   87.0017   14.1102 O.3     1  UNL1       -0.3784
      3 H          64.7293   86.2269   13.8277 H       1  UNL1        0.2106
      4 C          63.3724   86.6544   16.9672 C.3     1  UNL1        0.4197
      5 F          62.9492   86.4807   18.3958 F       1  UNL1       -0.1676
      6 F          62.3085   87.6949   16.7786 F       1  UNL1       -0.1676
      7 F          64.4362   85.6140   17.1558 F       1  UNL1       -0.1676
      8 C          64.4834   85.4957   15.5805 C.3     1  UNL1        0.0399
      9 C          62.6526   84.4259   15.5205 C.3     1  UNL1        0.0045
     10 C          63.9502   84.3506   14.7716 C.3     1  UNL1        0.0227
     11 C          65.1677   84.4090   14.1915 C.3     1  UNL1        0.0045
     12 C          63.4169   83.2055   13.9627 C.ar    1  UNL1       -0.0056
     13 C          63.4833   81.8087   14.5055 C.ar    1  UNL1       -0.0030
     14 C          62.9500   80.6636   13.6966 C.ar    1  UNL1       -0.0002
     15 C          62.3503   80.9153   12.3449 C.ar    1  UNL1        0.0013
     16 C          62.2839   82.3120   11.8022 C.ar    1  UNL1        0.0180
     17 C          62.8172   83.4571   12.6111 C.ar    1  UNL1        0.1017
     18 S          62.7508   84.8540   12.0682 S.O2    1  UNL1        0.0101
     19 C          62.6844   86.2507   11.5255 C.3     1  UNL1        0.1816
     20 O          61.8457   85.3301   12.9495 O.2     1  UNL1       -0.1686
     21 O          63.7558   84.4925   11.0151 O.2     1  UNL1       -0.1686
     22 C          63.1077   88.1604   15.4969 C.3     1  UNL1        0.0811
     23 C          63.5029   89.1765   14.4667 C.2     1  UNL1        0.0613
     24 C          64.5250   90.2601   14.6439 C.2     1  UNL1        0.0161
     25 C          64.5993   91.0408   13.3652 C.2     1  UNL1        0.0195
     26 C          65.4296   92.2213   12.9568 C.2     1  UNL1        0.0388
     27 C          65.2839   92.8007   11.5808 C.2     1  UNL1        0.1823
     28 N          64.3079   92.1996   10.6134 N.2     1  UNL1       -0.2468
     29 C          63.4776   91.0190   11.0218 C.3     1  UNL1        0.1722
     30 C          63.6232   90.4396   12.3977 C.2     1  UNL1        0.0833
     31 N          62.9456   89.2874   13.0785 N.2     1  UNL1       -0.2519
     32 S          66.1143   93.9813   11.1724 S.O2    1  UNL1        0.0265
     33 C          66.9446   95.1618   10.7640 C.3     1  UNL1        0.1834
     34 O          66.0554   94.5081   12.5756 O.2     1  UNL1       -0.1671
     35 O          66.1731   93.4545    9.7692 O.2     1  UNL1       -0.1671
@<TRIPOS>BOND
     1     9    10    1
     2    10    11    1
     3    10     8    1
     4     8     1    1
     5     1     2    1
     6     1    22    1
     7    22    23    1
     8    23    24    2
     9    24    25    1
    10    25    26    2
    11    26    27    1
    12    27    32    1
    13    32    33    1
    14    32    34    2
    15    32    35    2
    16    27    28    2
    17    28    29    1
    18    29    30    1
    19    30    31    2
    20     1     4    1
    21     4     5    1
    22     4     6    1
    23     4     7    1
    24    10    12    1
    25    12    13   ar
    26    13    14   ar
    27    14    15   ar
    28    15    16   ar
    29    16    17   ar
    30    17    18    1
    31    18    19    1
    32    18    20    2
    33    18    21    2
    34    31    23    1
    35    17    12   ar
    36    30    25    1
    37     2     3    1
@<TRIPOS>MOLECULE
*****
 35 37 0 0 0
SMALL
GASTEIGER

@<TRIPOS>ATOM
      1 C          63.6093   86.7173   15.6797 C.3     1  UNL1        0.1812
      2 O          64.0861   86.9968   14.2853 O.3     1  UNL1       -0.3784
      3 H          64.1888   86.1604   13.8049 H       1  UNL1        0.2106
      4 C          63.1324   86.4378   17.0741 C.3     1  UNL1        0.4197
      5 F          62.6556   86.1582   18.4686 F       1  UNL1       -0.1676
      6 F          62.3289   87.7043   17.0533 F       1  UNL1       -0.1676
      7 F          63.9359   85.1713   17.0950 F       1  UNL1       -0.1676
      8 C          63.6092   85.2465   15.3849 C.3     1  UNL1        0.0399
      9 C          64.9681   84.7116   13.8463 C.3     1  UNL1        0.0045
     10 C          63.4742   84.7650   13.9707 C.3     1  UNL1        0.0227
     11 C          62.1546   84.8656   14.2370 C.3     1  UNL1        0.0045
     12 C          63.3392   84.2836   12.5565 C.ar    1  UNL1       -0.0056
     13 C          63.2497   85.2731   11.4327 C.ar    1  UNL1       -0.0030
     14 C          63.1147   84.7917   10.0185 C.ar    1  UNL1       -0.0002
     15 C          63.0692   83.3207    9.7281 C.ar    1  UNL1        0.0013
     16 C          63.1587   82.3313   10.8519 C.ar    1  UNL1        0.0180
     17 C          63.2937   82.8127   12.2661 C.ar    1  UNL1        0.1017
     18 S          63.3832   81.8232   13.3899 S.O2    1  UNL1        0.0101
     19 C          63.4728   80.8337   14.5137 C.3     1  UNL1        0.1816
     20 O          64.7257   81.6807   13.3771 O.2     1  UNL1       -0.1686
     21 O          61.8915   81.8612   13.5423 O.2     1  UNL1       -0.1686
     22 C          63.6093   88.1880   15.9745 C.3     1  UNL1        0.0811
     23 C          63.8883   89.1727   14.8779 C.2     1  UNL1        0.0613
     24 C          64.9592   90.2231   14.8875 C.2     1  UNL1        0.0161
     25 C          64.8782   90.9795   13.5948 C.2     1  UNL1        0.0195
     26 C          65.6803   92.1237   13.0494 C.2     1  UNL1        0.0388
     27 C          65.3615   92.6850   11.6954 C.2     1  UNL1        0.1823
     28 N          64.2407   92.1021   10.8868 N.2     1  UNL1       -0.2468
     29 C          63.4386   90.9579   11.4321 C.3     1  UNL1        0.1722
     30 C          63.7573   90.3966   12.7861 C.2     1  UNL1        0.0833
     31 N          63.1455   89.2799   13.5791 N.2     1  UNL1       -0.2519
     32 S          66.1636   93.8293   11.1500 S.O2    1  UNL1        0.0265
     33 C          66.9657   94.9735   10.6047 C.3     1  UNL1        0.1834
     34 O          66.1645   93.1834    9.7962 O.2     1  UNL1       -0.1671
     35 O          66.1627   94.4751   12.5039 O.2     1  UNL1       -0.1671
@<TRIPOS>BOND
     1     9    10    1
     2    10    11    1
     3    10     8    1
     4     8     1    1
     5     1     2    1
     6     1    22    1
     7    22    23    1
     8    23    24    2
     9    24    25    1
    10    25    26    2
    11    26    27    1
    12    27    32    1
    13    32    33    1
    14    32    34    2
    15    32    35    2
    16    27    28    2
    17    28    29    1
    18    29    30    1
    19    30    31    2
    20     1     4    1
    21     4     5    1
    22     4     6    1
    23     4     7    1
    24    10    12    1
    25    12    13   ar
    26    13    14   ar
    27    14    15   ar
    28    15    16   ar
    29    16    17   ar
    30    17    18    1
    31    18    19    1
    32    18    20    2
    33    18    21    2
    34    31    23    1
    35    17    12   ar
    36    30    25    1
    37     2     3    1
@<TRIPOS>MOLECULE
*****
 35 37 0 0 0
SMALL
GASTEIGER

@<TRIPOS>ATOM
      1 C          61.5493   88.8910   10.9079 C.3     1  UNL1        0.1812
      2 O          62.7286   88.2419   10.2464 O.3     1  UNL1       -0.3784
      3 H          62.7026   87.2853   10.4054 H       1  UNL1        0.2106
      4 C          60.3699   89.5401   11.5695 C.3     1  UNL1        0.4197
      5 F          59.1904   90.1892   12.2310 F       1  UNL1       -0.1676
      6 F          61.0495   89.4180   12.9011 F       1  UNL1       -0.1676
      7 F          59.6902   89.6622   10.2379 F       1  UNL1       -0.1676
      8 C          61.0895   87.5516   11.4027 C.3     1  UNL1        0.0399
      9 C          63.0265   86.9905   12.0608 C.3     1  UNL1        0.0045
     10 C          61.9628   86.3454   11.2227 C.3     1  UNL1        0.0227
     11 C          60.9169   85.9015   10.4937 C.3     1  UNL1        0.0045
     12 C          62.8362   85.1392   11.0427 C.ar    1  UNL1       -0.0056
     13 C          63.2254   84.6941    9.6641 C.ar    1  UNL1       -0.0030
     14 C          64.0988   83.4879    9.4841 C.ar    1  UNL1       -0.0002
     15 C          64.5829   82.7268   10.6827 C.ar    1  UNL1        0.0013
     16 C          64.1937   83.1720   12.0612 C.ar    1  UNL1        0.0180
     17 C          63.3203   84.3782   12.2412 C.ar    1  UNL1        0.1017
     18 S          62.9311   84.8233   13.6197 S.O2    1  UNL1        0.0101
     19 C          62.5418   85.2684   14.9982 C.3     1  UNL1        0.1816
     20 O          61.6483   84.4054   13.5715 O.2     1  UNL1       -0.1686
     21 O          64.3192   85.3458   13.8430 O.2     1  UNL1       -0.1686
     22 C          62.0089   90.2303   10.4133 C.3     1  UNL1        0.0811
     23 C          63.1801   90.9075   11.0611 C.2     1  UNL1        0.0613
     24 C          63.7392   90.5958   12.4177 C.2     1  UNL1        0.0161
     25 C          64.9025   91.5109   12.6611 C.2     1  UNL1        0.0195
     26 C          65.8369   91.6587   13.8253 C.2     1  UNL1        0.0388
     27 C          66.9311   92.6839   13.7832 C.2     1  UNL1        0.1823
     28 N          67.0910   93.5612   12.5771 N.2     1  UNL1       -0.2468
     29 C          66.1566   93.4134   11.4130 C.3     1  UNL1        0.1722
     30 C          65.0624   92.3883   11.4550 C.2     1  UNL1        0.0833
     31 N          63.9979   92.0154   10.4661 N.2     1  UNL1       -0.2519
     32 S          67.8655   92.8317   14.9473 S.O2    1  UNL1        0.0265
     33 C          68.7998   92.9794   16.1114 C.3     1  UNL1        0.1834
     34 O          66.7004   93.1259   15.8451 O.2     1  UNL1       -0.1671
     35 O          69.0306   92.5374   14.0495 O.2     1  UNL1       -0.1671
@<TRIPOS>BOND
     1     9    10    1
     2    10    11    1
     3    10     8    1
     4     8     1    1
     5     1     2    1
     6     1    22    1
     7    22    23    1
     8    23    24    2
     9    24    25    1
    10    25    26    2
    11    26    27    1
    12    27    32    1
    13    32    33    1
    14    32    34    2
    15    32    35    2
    16    27    28    2
    17    28    29    1
    18    29    30    1
    19    30    31    2
    20     1     4    1
    21     4     5    1
    22     4     6    1
    23     4     7    1
    24    10    12    1
    25    12    13   ar
    26    13    14   ar
    27    14    15   ar
    28    15    16   ar
    29    16    17   ar
    30    17    18    1
    31    18    19    1
    32    18    20    2
    33    18    21    2
    34    31    23    1
    35    17    12   ar
    36    30    25    1
    37     2     3    1
@<TRIPOS>MOLECULE
*****
 35 37 0 0 0
SMALL
GASTEIGER

@<TRIPOS>ATOM
      1 C          61.7878   87.1019   10.0821 C.3     1  UNL1        0.1812
      2 O          62.8302   87.3564   11.1302 O.3     1  UNL1       -0.3784
      3 H          63.2258   86.5141   11.4041 H       1  UNL1        0.2106
      4 C          60.7453   86.8473    9.0341 C.3     1  UNL1        0.4197
      5 F          59.7028   86.5928    7.9860 F       1  UNL1       -0.1676
      6 F          59.7170   87.5219    9.8931 F       1  UNL1       -0.1676
      7 F          61.7735   86.1729    8.1752 F       1  UNL1       -0.1676
      8 C          62.0679   85.6303   10.1608 C.3     1  UNL1        0.0399
      9 C          61.5344   85.4804   12.2085 C.3     1  UNL1        0.0045
     10 C          62.7141   85.0543   11.3858 C.3     1  UNL1        0.0227
     11 C          63.6970   84.7370   10.5165 C.3     1  UNL1        0.0045
     12 C          63.3604   84.4783   12.6108 C.ar    1  UNL1       -0.0056
     13 C          63.6697   85.3631   13.7820 C.ar    1  UNL1       -0.0030
     14 C          64.3159   84.7871   15.0070 C.ar    1  UNL1       -0.0002
     15 C          64.6528   83.3264   15.0608 C.ar    1  UNL1        0.0013
     16 C          64.3434   82.4417   13.8897 C.ar    1  UNL1        0.0180
     17 C          63.6972   83.0177   12.6647 C.ar    1  UNL1        0.1017
     18 S          63.3879   82.1329   11.4935 S.O2    1  UNL1        0.0101
     19 C          63.0786   81.2482   10.3224 C.3     1  UNL1        0.1816
     20 O          64.6004   82.2092   10.9049 O.2     1  UNL1       -0.1686
     21 O          61.9925   81.9389   12.0086 O.2     1  UNL1       -0.1686
     22 C          61.5076   88.5733   10.0035 C.3     1  UNL1        0.0811
     23 C          62.4683   89.5531   10.6092 C.2     1  UNL1        0.0613
     24 C          62.9956   89.5179   12.0131 C.2     1  UNL1        0.0161
     25 C          63.9236   90.6832   12.1891 C.2     1  UNL1        0.0195
     26 C          64.7325   91.1540   13.3613 C.2     1  UNL1        0.0388
     27 C          65.5876   92.3803   13.2384 C.2     1  UNL1        0.1823
     28 N          65.6338   93.1357   11.9434 N.2     1  UNL1       -0.2468
     29 C          64.8249   92.6649   10.7712 C.3     1  UNL1        0.1722
     30 C          63.9698   91.4387   10.8940 C.2     1  UNL1        0.0833
     31 N          63.0704   90.7402    9.9176 N.2     1  UNL1       -0.2519
     32 S          66.3965   92.8511   14.4106 S.O2    1  UNL1        0.0265
     33 C          67.2054   93.3219   15.5828 C.3     1  UNL1        0.1834
     34 O          65.2448   92.5542   15.3246 O.2     1  UNL1       -0.1671
     35 O          67.5482   93.1480   13.4965 O.2     1  UNL1       -0.1671
@<TRIPOS>BOND
     1     9    10    1
     2    10    11    1
     3    10     8    1
     4     8     1    1
     5     1     2    1
     6     1    22    1
     7    22    23    1
     8    23    24    2
     9    24    25    1
    10    25    26    2
    11    26    27    1
    12    27    32    1
    13    32    33    1
    14    32    34    2
    15    32    35    2
    16    27    28    2
    17    28    29    1
    18    29    30    1
    19    30    31    2
    20     1     4    1
    21     4     5    1
    22     4     6    1
    23     4     7    1
    24    10    12    1
    25    12    13   ar
    26    13    14   ar
    27    14    15   ar
    28    15    16   ar
    29    16    17   ar
    30    17    18    1
    31    18    19    1
    32    18    20    2
    33    18    21    2
    34    31    23    1
    35    17    12   ar
    36    30    25    1
    37     2     3    1
@<TRIPOS>MOLECULE
*****
 35 37 0 0 0
SMALL
GASTEIGER

@<TRIPOS>ATOM
      1 C          61.8267   86.9569   10.3567 C.3     1  UNL1        0.1812
      2 O          62.6917   87.2004   11.5577 O.3     1  UNL1       -0.3784
      3 H          63.1707   86.3872   11.7814 H       1  UNL1        0.2106
      4 C          60.9617   86.7135    9.1557 C.3     1  UNL1        0.4197
      5 F          60.0967   86.4699    7.9546 F       1  UNL1       -0.1676
      6 F          59.7828   87.2805    9.8897 F       1  UNL1       -0.1676
      7 F          62.1405   86.1464    8.4217 F       1  UNL1       -0.1676
      8 C          62.3066   85.5369   10.2989 C.3     1  UNL1        0.0399
      9 C          61.5906   85.2277   12.2717 C.3     1  UNL1        0.0045
     10 C          62.8481   84.8774   11.5326 C.3     1  UNL1        0.0227
     11 C          63.9118   84.6370   10.7370 C.3     1  UNL1        0.0045
     12 C          63.3895   84.2180   12.7663 C.ar    1  UNL1       -0.0056
     13 C          63.6604   85.0340   13.9955 C.ar    1  UNL1       -0.0030
     14 C          64.2019   84.3746   15.2291 C.ar    1  UNL1       -0.0002
     15 C          64.4725   82.8991   15.2336 C.ar    1  UNL1        0.0013
     16 C          64.2016   82.0832   14.0045 C.ar    1  UNL1        0.0180
     17 C          63.6601   82.7427   12.7708 C.ar    1  UNL1        0.1017
     18 S          63.3892   81.9267   11.5416 S.O2    1  UNL1        0.0101
     19 C          63.1184   81.1107   10.3125 C.3     1  UNL1        0.1816
     20 O          64.6079   82.0683   10.9783 O.2     1  UNL1       -0.1686
     21 O          61.9918   81.6679   12.0213 O.2     1  UNL1       -0.1686
     22 C          61.3468   88.3769   10.4144 C.3     1  UNL1        0.0811
     23 C          62.2954   89.4741   10.7967 C.2     1  UNL1        0.0613
     24 C          62.8586   90.5141    9.8739 C.2     1  UNL1        0.0161
     25 C          63.7587   91.4068   10.6757 C.2     1  UNL1        0.0195
     26 C          64.5836   92.6012   10.2975 C.2     1  UNL1        0.0388
     27 C          65.4018   93.3074   11.3377 C.2     1  UNL1        0.1823
     28 N          65.3950   92.8192   12.7560 N.2     1  UNL1       -0.2468
     29 C          64.5700   91.6248   13.1342 C.3     1  UNL1        0.1722
     30 C          63.7519   90.9186   12.0940 C.2     1  UNL1        0.0833
     31 N          62.8475   89.7242   12.1688 N.2     1  UNL1       -0.2519
     32 S          66.2267   94.5017   10.9596 S.O2    1  UNL1        0.0265
     33 C          67.0517   95.6961   10.5814 C.3     1  UNL1        0.1834
     34 O          66.3600   93.9678    9.5642 O.2     1  UNL1       -0.1671
     35 O          66.0934   95.0356   12.3550 O.2     1  UNL1       -0.1671
@<TRIPOS>BOND
     1     9    10    1
     2    10    11    1
     3    10     8    1
     4     8     1    1
     5     1     2    1
     6     1    22    1
     7    22    23    1
     8    23    24    2
     9    24    25    1
    10    25    26    2
    11    26    27    1
    12    27    32    1
    13    32    33    1
    14    32    34    2
    15    32    35    2
    16    27    28    2
    17    28    29    1
    18    29    30    1
    19    30    31    2
    20     1     4    1
    21     4     5    1
    22     4     6    1
    23     4     7    1
    24    10    12    1
    25    12    13   ar
    26    13    14   ar
    27    14    15   ar
    28    15    16   ar
    29    16    17   ar
    30    17    18    1
    31    18    19    1
    32    18    20    2
    33    18    21    2
    34    31    23    1
    35    17    12   ar
    36    30    25    1
    37     2     3    1
@<TRIPOS>MOLECULE
*****
 35 37 0 0 0
SMALL
GASTEIGER

@<TRIPOS>ATOM
      1 C          61.3832   89.1447   10.4737 C.3     1  UNL1        0.1812
      2 O          62.5745   88.4431    9.8922 O.3     1  UNL1       -0.3784
      3 H          62.4803   87.4861   10.0196 H       1  UNL1        0.2106
      4 C          60.1918   89.8464   11.0553 C.3     1  UNL1        0.4197
      5 F          59.0004   90.5481   11.6369 F       1  UNL1       -0.1676
      6 F          60.6596   89.4957   12.4368 F       1  UNL1       -0.1676
      7 F          59.7240   90.1971    9.6740 F       1  UNL1       -0.1676
      8 C          60.8073   87.8232   10.8885 C.3     1  UNL1        0.0399
      9 C          62.6723   87.3968   11.8050 C.3     1  UNL1        0.0045
     10 C          61.6920   86.6155   10.9813 C.3     1  UNL1        0.0227
     11 C          60.7193   86.0500   10.2353 C.3     1  UNL1        0.0045
     12 C          62.5768   85.4077   11.0741 C.ar    1  UNL1       -0.0056
     13 C          63.0017   84.8907   12.4165 C.ar    1  UNL1       -0.0030
     14 C          63.8865   83.6830   12.5093 C.ar    1  UNL1       -0.0002
     15 C          64.3462   82.9923   11.2596 C.ar    1  UNL1        0.0013
     16 C          63.9213   83.5093    9.9173 C.ar    1  UNL1        0.0180
     17 C          63.0365   84.7170    9.8245 C.ar    1  UNL1        0.1017
     18 S          62.6116   85.2341    8.4820 S.O2    1  UNL1        0.0101
     19 C          62.1866   85.7511    7.1396 C.3     1  UNL1        0.1816
     20 O          61.6319   84.3319    8.2609 O.2     1  UNL1       -0.1686
     21 O          63.6560   86.3075    8.5647 O.2     1  UNL1       -0.1686
     22 C          61.9590   90.4662   10.0590 C.3     1  UNL1        0.0811
     23 C          63.1347   91.0364   10.7957 C.2     1  UNL1        0.0613
     24 C          63.5382   90.7065   12.2024 C.2     1  UNL1        0.0161
     25 C          64.7661   91.5027   12.5312 C.2     1  UNL1        0.0195
     26 C          65.6065   91.5855   13.7709 C.2     1  UNL1        0.0388
     27 C          66.8024   92.4903   13.8073 C.2     1  UNL1        0.1823
     28 N          67.1578   93.3123   12.6040 N.2     1  UNL1       -0.2468
     29 C          66.3174   93.2295   11.3643 C.3     1  UNL1        0.1722
     30 C          65.1216   92.3248   11.3279 C.2     1  UNL1        0.0833
     31 N          64.1132   92.0365   10.2553 N.2     1  UNL1       -0.2519
     32 S          67.6428   92.5731   15.0469 S.O2    1  UNL1        0.0265
     33 C          68.4833   92.6558   16.2866 C.3     1  UNL1        0.1834
     34 O          66.4005   92.6111   15.8866 O.2     1  UNL1       -0.1671
     35 O          68.8852   92.5350   14.2073 O.2     1  UNL1       -0.1671
@<TRIPOS>BOND
     1     9    10    1
     2    10    11    1
     3    10     8    1
     4     8     1    1
     5     1     2    1
     6     1    22    1
     7    22    23    1
     8    23    24    2
     9    24    25    1
    10    25    26    2
    11    26    27    1
    12    27    32    1
    13    32    33    1
    14    32    34    2
    15    32    35    2
    16    27    28    2
    17    28    29    1
    18    29    30    1
    19    30    31    2
    20     1     4    1
    21     4     5    1
    22     4     6    1
    23     4     7    1
    24    10    12    1
    25    12    13   ar
    26    13    14   ar
    27    14    15   ar
    28    15    16   ar
    29    16    17   ar
    30    17    18    1
    31    18    19    1
    32    18    20    2
    33    18    21    2
    34    31    23    1
    35    17    12   ar
    36    30    25    1
    37     2     3    1
@<TRIPOS>MOLECULE
*****
 35 37 0 0 0
SMALL
GASTEIGER

@<TRIPOS>ATOM
      1 C          63.2215   88.4646   12.8414 C.3     1  UNL1        0.1812
      2 O          62.5133   89.2101   11.7494 O.3     1  UNL1       -0.3784
      3 H          62.2948   88.5982   11.0292 H       1  UNL1        0.2106
      4 C          63.9297   87.7191   13.9334 C.3     1  UNL1        0.4197
      5 F          64.6380   86.9736   15.0255 F       1  UNL1       -0.1676
      6 F          64.0472   86.5206   13.0391 F       1  UNL1       -0.1676
      7 F          63.8123   88.9175   14.8278 F       1  UNL1       -0.1676
      8 C          63.1137   87.1973   12.0462 C.3     1  UNL1        0.0399
      9 C          62.8497   88.2012   10.1962 C.3     1  UNL1        0.0045
     10 C          62.1296   87.1011   10.9182 C.3     1  UNL1        0.0227
     11 C          61.5943   86.1290   11.6869 C.3     1  UNL1        0.0045
     12 C          61.1455   87.0049    9.7902 C.ar    1  UNL1       -0.0056
     13 C          61.3323   85.9728    8.7179 C.ar    1  UNL1       -0.0030
     14 C          60.3483   85.8766    7.5899 C.ar    1  UNL1       -0.0002
     15 C          59.1773   86.8126    7.5343 C.ar    1  UNL1        0.0013
     16 C          58.9905   87.8446    8.6066 C.ar    1  UNL1        0.0180
     17 C          59.9746   87.9408    9.7346 C.ar    1  UNL1        0.1017
     18 S          59.7878   88.9729   10.8069 S.O2    1  UNL1        0.0101
     19 C          59.6009   90.0050   11.8793 C.3     1  UNL1        0.1816
     20 O          59.4535   88.1206   11.7991 O.2     1  UNL1       -0.1686
     21 O          60.1390   90.0537    9.8280 O.2     1  UNL1       -0.1686
     22 C          63.3294   89.7319   13.6366 C.3     1  UNL1        0.0811
     23 C          64.1128   90.8915   13.0969 C.2     1  UNL1        0.0613
     24 C          64.2114   91.2945   11.6554 C.2     1  UNL1        0.0161
     25 C          65.0948   92.5039   11.5715 C.2     1  UNL1        0.0195
     26 C          65.5496   93.3360   10.4092 C.2     1  UNL1        0.0388
     27 C          66.4519   94.5125   10.6367 C.2     1  UNL1        0.1823
     28 N          66.8993   94.8569   12.0263 N.2     1  UNL1       -0.2468
     29 C          66.4445   94.0249   13.1886 C.3     1  UNL1        0.1722
     30 C          65.5423   92.8484   12.9612 C.2     1  UNL1        0.0833
     31 N          64.9354   91.8518   13.9039 N.2     1  UNL1       -0.2519
     32 S          66.9067   95.3446    9.4745 S.O2    1  UNL1        0.0265
     33 C          67.3615   96.1767    8.3122 C.3     1  UNL1        0.1834
     34 O          68.1739   94.5456    9.3983 O.2     1  UNL1       -0.1671
     35 O          65.6395   96.1436    9.5506 O.2     1  UNL1       -0.1671
@<TRIPOS>BOND
     1     9    10    1
     2    10    11    1
     3    10     8    1
     4     8     1    1
     5     1     2    1
     6     1    22    1
     7    22    23    1
     8    23    24    2
     9    24    25    1
    10    25    26    2
    11    26    27    1
    12    27    32    1
    13    32    33    1
    14    32    34    2
    15    32    35    2
    16    27    28    2
    17    28    29    1
    18    29    30    1
    19    30    31    2
    20     1     4    1
    21     4     5    1
    22     4     6    1
    23     4     7    1
    24    10    12    1
    25    12    13   ar
    26    13    14   ar
    27    14    15   ar
    28    15    16   ar
    29    16    17   ar
    30    17    18    1
    31    18    19    1
    32    18    20    2
    33    18    21    2
    34    31    23    1
    35    17    12   ar
    36    30    25    1
    37     2     3    1
