@<TRIPOS>MOLECULE
*****
 31 34 0 0 0
SMALL
GASTEIGER

@<TRIPOS>ATOM
      1 C          63.8458   87.2952   14.4846 C.2     1  UNL1        0.2260
      2 O          63.8931   87.1248   12.9951 O.2     1  UNL1       -0.2748
      3 N          64.2014   88.6162   15.1000 N.am    1  UNL1       -0.2839
      4 H          64.1703   88.7281   16.0777 H       1  UNL1        0.1549
      5 C          64.6042   89.7666   14.2259 C.ar    1  UNL1        0.0504
      6 C          65.8364   90.5587   14.5492 C.ar    1  UNL1        0.0160
      7 C          66.2393   91.7091   13.6751 C.ar    1  UNL1        0.0200
      8 C          65.4100   92.0676   12.4776 C.ar    1  UNL1        0.1104
      9 C          64.1779   91.2756   12.1544 C.ar    1  UNL1        0.0200
     10 C          63.7749   90.1251   13.0285 C.ar    1  UNL1        0.0160
     11 S          65.8129   93.2180   11.6035 S.O2    1  UNL1        0.0274
     12 O          66.5128   93.8566   12.7665 O.2     1  UNL1       -0.1642
     13 O          65.1130   92.5795   10.4406 O.2     1  UNL1       -0.1642
     14 C          66.2157   94.3685   10.7293 C.ar    1  UNL1        0.1103
     15 C          65.5537   95.7042   10.8951 C.ar    1  UNL1        0.0187
     16 C          65.9565   96.8546   10.0209 C.ar    1  UNL1        0.0013
     17 C          67.0215   96.6693    8.9810 C.ar    1  UNL1        0.0001
     18 C          67.6836   95.3336    8.8152 C.ar    1  UNL1        0.0013
     19 C          67.2807   94.1832    9.6894 C.ar    1  UNL1        0.0187
     20 C          63.1082   84.6917   15.5211 C.3     1  UNL1        0.0330
     21 C          63.0799   85.6052   16.7104 C.3     1  UNL1        0.0143
     22 C          63.4429   86.1448   15.3587 C.3     1  UNL1        0.0812
     23 N          62.4005   79.2259   13.1494 N.pl3   1  UNL1       -0.3426
     24 C          62.5774   80.5924   13.7424 C.ar    1  UNL1        0.1254
     25 C          61.3774   81.3911   14.1572 C.ar    1  UNL1        0.0336
     26 C          61.5544   82.7575   14.7501 C.ar    1  UNL1        0.0001
     27 C          62.9313   83.3252   14.9282 C.ar    1  UNL1       -0.0028
     28 C          64.1312   82.5265   14.5134 C.ar    1  UNL1        0.0960
     29 N          63.9543   81.1601   13.9205 N.ar    1  UNL1       -0.2299
     30 H          61.4967   78.8533   13.0325 H       1  UNL1        0.1437
     31 H          63.1881   78.7017   12.8772 H       1  UNL1        0.1437
@<TRIPOS>BOND
     1    23    24    1
     2    24    25   ar
     3    25    26   ar
     4    26    27   ar
     5    20    27    1
     6    20    21    1
     7    21    22    1
     8    22     1    1
     9     1     2    2
    10     1     3   am
    11     3     5    1
    12     5     6   ar
    13     6     7   ar
    14     7     8   ar
    15     8    11    1
    16    11    12    2
    17    11    13    2
    18    11    14    1
    19    14    15   ar
    20    15    16   ar
    21    16    17   ar
    22    17    18   ar
    23    18    19   ar
    24     8     9   ar
    25     9    10   ar
    26    27    28   ar
    27    28    29   ar
    28    29    24   ar
    29    22    20    1
    30    10     5   ar
    31    19    14   ar
    32    23    30    1
    33    23    31    1
    34     3     4    1
@<TRIPOS>MOLECULE
*****
 31 34 0 0 0
SMALL
GASTEIGER

@<TRIPOS>ATOM
      1 C          59.4614   89.3344    6.9853 C.2     1  UNL1        0.2260
      2 O          59.0058   87.9068    6.9193 O.2     1  UNL1       -0.2748
      3 N          60.4354   89.7627    8.0427 N.am    1  UNL1       -0.2839
      4 H          60.7345   90.6996    8.0860 H       1  UNL1        0.1549
      5 C          60.9538   88.7633    9.0339 C.ar    1  UNL1        0.0504
      6 C          61.8275   89.2144   10.1668 C.ar    1  UNL1        0.0160
      7 C          62.3458   88.2151   11.1580 C.ar    1  UNL1        0.0200
      8 C          61.9905   86.7647   11.0166 C.ar    1  UNL1        0.1104
      9 C          61.1169   86.3136    9.8838 C.ar    1  UNL1        0.0200
     10 C          60.5985   87.3129    8.8925 C.ar    1  UNL1        0.0160
     11 S          62.5089   85.7654   12.0078 S.O2    1  UNL1        0.0274
     12 O          63.1305   86.8757   12.8022 O.2     1  UNL1       -0.1642
     13 O          61.8873   84.6551   11.2136 O.2     1  UNL1       -0.1642
     14 C          63.0272   84.7660   12.9991 C.ar    1  UNL1        0.1103
     15 C          62.7632   83.3033   12.7974 C.ar    1  UNL1        0.0187
     16 C          63.2815   82.3040   13.7887 C.ar    1  UNL1        0.0013
     17 C          64.0639   82.7674   14.9816 C.ar    1  UNL1        0.0001
     18 C          64.3280   84.2301   15.1833 C.ar    1  UNL1        0.0013
     19 C          63.8096   85.2294   14.1921 C.ar    1  UNL1        0.0187
     20 C          59.1873   91.2890    4.8637 C.3     1  UNL1        0.0330
     21 C          57.8010   91.1093    5.4075 C.3     1  UNL1        0.0143
     22 C          58.9431   90.3337    5.9941 C.3     1  UNL1        0.0812
     23 N          62.9530   93.9102    0.9974 N.pl3   1  UNL1       -0.3426
     24 C          62.0116   93.2549    1.9639 C.ar    1  UNL1        0.1254
     25 C          62.5107   92.1837    2.8877 C.ar    1  UNL1        0.0336
     26 C          61.5692   91.5284    3.8543 C.ar    1  UNL1        0.0001
     27 C          60.1287   91.9443    3.8971 C.ar    1  UNL1       -0.0028
     28 C          59.6296   93.0155    2.9733 C.ar    1  UNL1        0.0960
     29 N          60.5711   93.6708    2.0068 N.ar    1  UNL1       -0.2299
     30 H          63.8985   93.6372    0.9693 H       1  UNL1        0.1437
     31 H          62.6254   94.6132    0.3910 H       1  UNL1        0.1437
@<TRIPOS>BOND
     1    23    24    1
     2    24    25   ar
     3    25    26   ar
     4    26    27   ar
     5    20    27    1
     6    20    21    1
     7    21    22    1
     8    22     1    1
     9     1     2    2
    10     1     3   am
    11     3     5    1
    12     5     6   ar
    13     6     7   ar
    14     7     8   ar
    15     8    11    1
    16    11    12    2
    17    11    13    2
    18    11    14    1
    19    14    15   ar
    20    15    16   ar
    21    16    17   ar
    22    17    18   ar
    23    18    19   ar
    24     8     9   ar
    25     9    10   ar
    26    27    28   ar
    27    28    29   ar
    28    29    24   ar
    29    22    20    1
    30    10     5   ar
    31    19    14   ar
    32    23    30    1
    33    23    31    1
    34     3     4    1
@<TRIPOS>MOLECULE
*****
 31 34 0 0 0
SMALL
GASTEIGER

@<TRIPOS>ATOM
      1 C          65.7232   91.1096   13.9050 C.2     1  UNL1        0.2260
      2 O          66.7054   90.1140   14.4473 O.2     1  UNL1       -0.2748
      3 N          64.4065   90.6430   13.3585 N.am    1  UNL1       -0.2839
      4 H          63.7619   91.2964   13.0026 H       1  UNL1        0.1549
      5 C          64.0720   89.1808   13.3543 C.ar    1  UNL1        0.0504
      6 C          64.5188   88.3059   14.4879 C.ar    1  UNL1        0.0160
      7 C          64.1843   86.8437   14.4837 C.ar    1  UNL1        0.0200
      8 C          63.4030   86.2563   13.3459 C.ar    1  UNL1        0.1104
      9 C          62.9562   87.1311   12.2123 C.ar    1  UNL1        0.0200
     10 C          63.2907   88.5934   12.2165 C.ar    1  UNL1        0.0160
     11 S          63.0685   84.7941   13.3417 S.O2    1  UNL1        0.0274
     12 O          63.3447   84.7352   11.8685 O.2     1  UNL1       -0.1642
     13 O          62.7923   84.8531   14.8149 O.2     1  UNL1       -0.1642
     14 C          62.7340   83.3319   13.3376 C.ar    1  UNL1        0.1103
     15 C          61.9241   82.7446   14.4552 C.ar    1  UNL1        0.0187
     16 C          61.5896   81.2824   14.4510 C.ar    1  UNL1        0.0013
     17 C          62.0650   80.4075   13.3292 C.ar    1  UNL1        0.0001
     18 C          62.8748   80.9948   12.2115 C.ar    1  UNL1        0.0013
     19 C          63.2093   82.4570   12.2157 C.ar    1  UNL1        0.0187
     20 C          66.3071   93.8495   13.1641 C.3     1  UNL1        0.0330
     21 C          66.3877   93.8267   14.6617 C.3     1  UNL1        0.0143
     22 C          66.0577   92.5718   13.9092 C.3     1  UNL1        0.0812
     23 N          66.6971   96.8527    7.9845 N.pl3   1  UNL1       -0.3426
     24 C          66.5996   96.1019    9.2794 C.ar    1  UNL1        0.1254
     25 C          66.2423   96.8281   10.5423 C.ar    1  UNL1        0.0336
     26 C          66.1448   96.0772   11.8372 C.ar    1  UNL1        0.0001
     27 C          66.4046   94.6003   11.8692 C.ar    1  UNL1       -0.0028
     28 C          66.7619   93.8742   10.6063 C.ar    1  UNL1        0.0960
     29 N          66.8594   94.6250    9.3114 N.ar    1  UNL1       -0.2299
     30 H          66.5265   97.8221    7.9635 H       1  UNL1        0.1437
     31 H          66.9316   96.3761    7.1556 H       1  UNL1        0.1437
@<TRIPOS>BOND
     1    23    24    1
     2    24    25   ar
     3    25    26   ar
     4    26    27   ar
     5    20    27    1
     6    20    21    1
     7    21    22    1
     8    22     1    1
     9     1     2    2
    10     1     3   am
    11     3     5    1
    12     5     6   ar
    13     6     7   ar
    14     7     8   ar
    15     8    11    1
    16    11    12    2
    17    11    13    2
    18    11    14    1
    19    14    15   ar
    20    15    16   ar
    21    16    17   ar
    22    17    18   ar
    23    18    19   ar
    24     8     9   ar
    25     9    10   ar
    26    27    28   ar
    27    28    29   ar
    28    29    24   ar
    29    22    20    1
    30    10     5   ar
    31    19    14   ar
    32    23    30    1
    33    23    31    1
    34     3     4    1
@<TRIPOS>MOLECULE
*****
 31 34 0 0 0
SMALL
GASTEIGER

@<TRIPOS>ATOM
      1 C          65.7226   91.0912   13.9738 C.2     1  UNL1        0.2260
      2 O          66.6851   90.0998   14.5575 O.2     1  UNL1       -0.2748
      3 N          64.4240   90.6207   13.3885 N.am    1  UNL1       -0.2839
      4 H          63.7923   91.2714   13.0054 H       1  UNL1        0.1549
      5 C          64.0880   89.1589   13.3870 C.ar    1  UNL1        0.0504
      6 C          63.3346   88.5636   12.2346 C.ar    1  UNL1        0.0160
      7 C          62.9985   87.1018   12.2331 C.ar    1  UNL1        0.0200
      8 C          63.4159   86.2351   13.3840 C.ar    1  UNL1        0.1104
      9 C          64.1694   86.8302   14.5364 C.ar    1  UNL1        0.0200
     10 C          64.5054   88.2922   14.5380 C.ar    1  UNL1        0.0160
     11 S          63.0799   84.7732   13.3825 S.O2    1  UNL1        0.0274
     12 O          63.5709   84.6589   14.7953 O.2     1  UNL1       -0.1642
     13 O          62.5889   84.8875   11.9698 O.2     1  UNL1       -0.1642
     14 C          62.7439   83.3113   13.3810 C.ar    1  UNL1        0.1103
     15 C          63.2737   82.4211   12.2963 C.ar    1  UNL1        0.0187
     16 C          62.9377   80.9593   12.2948 C.ar    1  UNL1        0.0013
     17 C          62.0718   80.3876   13.3780 C.ar    1  UNL1        0.0001
     18 C          61.5419   81.2779   14.4628 C.ar    1  UNL1        0.0013
     19 C          61.8780   82.7397   14.4643 C.ar    1  UNL1        0.0187
     20 C          66.2968   93.8320   13.2285 C.3     1  UNL1        0.0330
     21 C          66.4024   93.8062   14.7246 C.3     1  UNL1        0.0143
     22 C          66.0586   92.5531   13.9752 C.3     1  UNL1        0.0812
     23 N          66.6032   96.8451    8.0490 N.pl3   1  UNL1       -0.3426
     24 C          66.5266   96.0918    9.3439 C.ar    1  UNL1        0.1254
     25 C          66.3321   96.8338   10.6329 C.ar    1  UNL1        0.0336
     26 C          66.2555   96.0806   11.9278 C.ar    1  UNL1        0.0001
     27 C          66.3734   94.5852   11.9337 C.ar    1  UNL1       -0.0028
     28 C          66.5680   93.8432   10.6447 C.ar    1  UNL1        0.0960
     29 N          66.6446   94.5965    9.3498 N.ar    1  UNL1       -0.2299
     30 H          66.5258   97.8265    8.0452 H       1  UNL1        0.1437
     31 H          66.7309   96.3581    7.2030 H       1  UNL1        0.1437
@<TRIPOS>BOND
     1    23    24    1
     2    24    25   ar
     3    25    26   ar
     4    26    27   ar
     5    20    27    1
     6    20    21    1
     7    21    22    1
     8    22     1    1
     9     1     2    2
    10     1     3   am
    11     3     5    1
    12     5     6   ar
    13     6     7   ar
    14     7     8   ar
    15     8    11    1
    16    11    12    2
    17    11    13    2
    18    11    14    1
    19    14    15   ar
    20    15    16   ar
    21    16    17   ar
    22    17    18   ar
    23    18    19   ar
    24     8     9   ar
    25     9    10   ar
    26    27    28   ar
    27    28    29   ar
    28    29    24   ar
    29    22    20    1
    30    10     5   ar
    31    19    14   ar
    32    23    30    1
    33    23    31    1
    34     3     4    1
@<TRIPOS>MOLECULE
*****
 31 34 0 0 0
SMALL
GASTEIGER

@<TRIPOS>ATOM
      1 C          63.4796   86.9065   13.8254 C.2     1  UNL1        0.2260
      2 O          63.6565   86.8842   12.3361 O.2     1  UNL1       -0.2748
      3 N          63.7924   88.1529   14.5993 N.am    1  UNL1       -0.2839
      4 H          63.6763   88.1676   15.5768 H       1  UNL1        0.1549
      5 C          64.2820   89.3769   13.8837 C.ar    1  UNL1        0.0504
      6 C          63.6204   89.8169   12.6114 C.ar    1  UNL1        0.0160
      7 C          64.1100   91.0409   11.8959 C.ar    1  UNL1        0.0200
      8 C          65.2613   91.8250   12.4526 C.ar    1  UNL1        0.1104
      9 C          65.9229   91.3850   13.7248 C.ar    1  UNL1        0.0200
     10 C          65.4333   90.1610   14.4404 C.ar    1  UNL1        0.0160
     11 S          65.7509   93.0490   11.7371 S.O2    1  UNL1        0.0274
     12 O          64.6897   92.8634   10.6932 O.2     1  UNL1       -0.1642
     13 O          66.8120   93.2347   12.7808 O.2     1  UNL1       -0.1642
     14 C          66.2406   94.2731   11.0215 C.ar    1  UNL1        0.1103
     15 C          66.9380   94.1408    9.7001 C.ar    1  UNL1        0.0187
     16 C          67.4276   95.3648    8.9847 C.ar    1  UNL1        0.0013
     17 C          67.2198   96.7212    9.5906 C.ar    1  UNL1        0.0001
     18 C          66.5224   96.8535   10.9120 C.ar    1  UNL1        0.0013
     19 C          66.0328   95.6294   11.6274 C.ar    1  UNL1        0.0187
     20 C          62.6890   84.2131   14.5445 C.3     1  UNL1        0.0330
     21 C          62.4430   85.0319   15.7769 C.3     1  UNL1        0.0143
     22 C          62.9900   85.6825   14.5410 C.3     1  UNL1        0.0812
     23 N          62.5618   78.9283   11.7063 N.pl3   1  UNL1       -0.3426
     24 C          62.5936   80.2495   12.4159 C.ar    1  UNL1        0.1254
     25 C          63.0197   81.4856   11.6807 C.ar    1  UNL1        0.0336
     26 C          63.0514   82.8068   12.3902 C.ar    1  UNL1        0.0001
     27 C          62.6572   82.8919   13.8349 C.ar    1  UNL1       -0.0028
     28 C          62.2312   81.6558   14.5701 C.ar    1  UNL1        0.0960
     29 N          62.1994   80.3346   13.8606 N.ar    1  UNL1       -0.2299
     30 H          62.8206   78.8725   10.7581 H       1  UNL1        0.1437
     31 H          62.2822   78.1170   12.1889 H       1  UNL1        0.1437
@<TRIPOS>BOND
     1    23    24    1
     2    24    25   ar
     3    25    26   ar
     4    26    27   ar
     5    20    27    1
     6    20    21    1
     7    21    22    1
     8    22     1    1
     9     1     2    2
    10     1     3   am
    11     3     5    1
    12     5     6   ar
    13     6     7   ar
    14     7     8   ar
    15     8    11    1
    16    11    12    2
    17    11    13    2
    18    11    14    1
    19    14    15   ar
    20    15    16   ar
    21    16    17   ar
    22    17    18   ar
    23    18    19   ar
    24     8     9   ar
    25     9    10   ar
    26    27    28   ar
    27    28    29   ar
    28    29    24   ar
    29    22    20    1
    30    10     5   ar
    31    19    14   ar
    32    23    30    1
    33    23    31    1
    34     3     4    1
@<TRIPOS>MOLECULE
*****
 31 34 0 0 0
SMALL
GASTEIGER

@<TRIPOS>ATOM
      1 C          64.6640   90.1903   13.4924 C.2     1  UNL1        0.2260
      2 O          63.8718   89.8236   12.2726 O.2     1  UNL1       -0.2748
      3 N          64.9534   89.1546   14.5382 N.am    1  UNL1       -0.2839
      4 H          65.4734   89.3953   15.3388 H       1  UNL1        0.1549
      5 C          64.4506   87.7522   14.3642 C.ar    1  UNL1        0.0504
      6 C          63.6831   87.3782   13.1308 C.ar    1  UNL1        0.0160
      7 C          63.1802   85.9758   12.9568 C.ar    1  UNL1        0.0200
      8 C          63.4449   84.9473   14.0160 C.ar    1  UNL1        0.1104
      9 C          64.2124   85.3211   15.2493 C.ar    1  UNL1        0.0200
     10 C          64.7153   86.7236   15.4234 C.ar    1  UNL1        0.0160
     11 S          62.9421   83.5448   13.8420 S.O2    1  UNL1        0.0274
     12 O          62.9427   83.3598   15.3306 O.2     1  UNL1       -0.1642
     13 O          62.9415   83.7298   12.3535 O.2     1  UNL1       -0.1642
     14 C          62.4393   82.1423   13.6679 C.ar    1  UNL1        0.1103
     15 C          61.1751   81.7089   14.3489 C.ar    1  UNL1        0.0187
     16 C          60.6723   80.3065   14.1748 C.ar    1  UNL1        0.0013
     17 C          61.4338   79.3375   13.3197 C.ar    1  UNL1        0.0001
     18 C          62.6980   79.7709   12.6386 C.ar    1  UNL1        0.0013
     19 C          63.2007   81.1733   12.8128 C.ar    1  UNL1        0.0187
     20 C          65.7596   92.8418   13.0847 C.3     1  UNL1        0.0330
     21 C          65.4450   92.7728   14.5497 C.3     1  UNL1        0.0143
     22 C          65.1668   91.5928   13.6665 C.3     1  UNL1        0.0812
     23 N          67.8554   95.8857    8.3580 N.pl3   1  UNL1       -0.3426
     24 C          67.3314   95.1248    9.5397 C.ar    1  UNL1        0.1254
     25 C          67.3938   93.6262    9.5543 C.ar    1  UNL1        0.0336
     26 C          66.8699   92.8652   10.7360 C.ar    1  UNL1        0.0001
     27 C          66.2836   93.6028   11.9030 C.ar    1  UNL1       -0.0028
     28 C          66.2212   95.1014   11.8884 C.ar    1  UNL1        0.0960
     29 N          66.7451   95.8624   10.7067 N.ar    1  UNL1       -0.2299
     30 H          68.2402   95.4016    7.5920 H       1  UNL1        0.1437
     31 H          67.8144   96.8693    8.3484 H       1  UNL1        0.1437
@<TRIPOS>BOND
     1    23    24    1
     2    24    25   ar
     3    25    26   ar
     4    26    27   ar
     5    20    27    1
     6    20    21    1
     7    21    22    1
     8    22     1    1
     9     1     2    2
    10     1     3   am
    11     3     5    1
    12     5     6   ar
    13     6     7   ar
    14     7     8   ar
    15     8    11    1
    16    11    12    2
    17    11    13    2
    18    11    14    1
    19    14    15   ar
    20    15    16   ar
    21    16    17   ar
    22    17    18   ar
    23    18    19   ar
    24     8     9   ar
    25     9    10   ar
    26    27    28   ar
    27    28    29   ar
    28    29    24   ar
    29    22    20    1
    30    10     5   ar
    31    19    14   ar
    32    23    30    1
    33    23    31    1
    34     3     4    1
@<TRIPOS>MOLECULE
*****
 31 34 0 0 0
SMALL
GASTEIGER

@<TRIPOS>ATOM
      1 C          63.8067   88.3087   14.8940 C.2     1  UNL1        0.2260
      2 O          63.5214   87.2765   15.9444 O.2     1  UNL1       -0.2748
      3 N          63.8936   87.9066   13.4515 N.am    1  UNL1       -0.2839
      4 H          64.0808   88.5841   12.7621 H       1  UNL1        0.1549
      5 C          63.6953   86.4725   13.0594 C.ar    1  UNL1        0.0504
      6 C          64.4096   85.3851   13.8060 C.ar    1  UNL1        0.0160
      7 C          64.2112   83.9509   13.4139 C.ar    1  UNL1        0.0200
      8 C          63.2987   83.6041   12.2751 C.ar    1  UNL1        0.1104
      9 C          62.5844   84.6913   11.5284 C.ar    1  UNL1        0.0200
     10 C          62.7827   86.1256   11.9205 C.ar    1  UNL1        0.0160
     11 S          63.1003   82.1699   11.8830 S.O2    1  UNL1        0.0274
     12 O          62.3409   81.9274   13.1537 O.2     1  UNL1       -0.1642
     13 O          63.8597   82.4123   10.6124 O.2     1  UNL1       -0.1642
     14 C          62.9020   80.7357   11.4908 C.ar    1  UNL1        0.1103
     15 C          62.9983   80.3321   10.0494 C.ar    1  UNL1        0.0187
     16 C          62.8000   78.8979    9.6572 C.ar    1  UNL1        0.0013
     17 C          62.5054   77.8673   10.7066 C.ar    1  UNL1        0.0001
     18 C          62.4092   78.2709   12.1480 C.ar    1  UNL1        0.0013
     19 C          62.6075   79.7051   12.5402 C.ar    1  UNL1        0.0187
     20 C          64.4815   91.1261   14.9552 C.3     1  UNL1        0.0330
     21 C          63.8719   90.8437   16.2963 C.3     1  UNL1        0.0143
     22 C          64.0050   89.7428   15.2861 C.3     1  UNL1        0.0812
     23 N          66.9900   94.9727   11.0937 N.pl3   1  UNL1       -0.3426
     24 C          66.3629   94.0110   12.0591 C.ar    1  UNL1        0.1254
     25 C          65.3935   92.9781   11.5658 C.ar    1  UNL1        0.0336
     26 C          64.7664   92.0164   12.5312 C.ar    1  UNL1        0.0001
     27 C          65.1086   92.0877   13.9898 C.ar    1  UNL1       -0.0028
     28 C          66.0780   93.1207   14.4831 C.ar    1  UNL1        0.0960
     29 N          66.7051   94.0823   13.5178 N.ar    1  UNL1       -0.2299
     30 H          66.7653   94.9259   10.1363 H       1  UNL1        0.1437
     31 H          67.6262   95.6507   11.4175 H       1  UNL1        0.1437
@<TRIPOS>BOND
     1    23    24    1
     2    24    25   ar
     3    25    26   ar
     4    26    27   ar
     5    20    27    1
     6    20    21    1
     7    21    22    1
     8    22     1    1
     9     1     2    2
    10     1     3   am
    11     3     5    1
    12     5     6   ar
    13     6     7   ar
    14     7     8   ar
    15     8    11    1
    16    11    12    2
    17    11    13    2
    18    11    14    1
    19    14    15   ar
    20    15    16   ar
    21    16    17   ar
    22    17    18   ar
    23    18    19   ar
    24     8     9   ar
    25     9    10   ar
    26    27    28   ar
    27    28    29   ar
    28    29    24   ar
    29    22    20    1
    30    10     5   ar
    31    19    14   ar
    32    23    30    1
    33    23    31    1
    34     3     4    1
@<TRIPOS>MOLECULE
*****
 31 34 0 0 0
SMALL
GASTEIGER

@<TRIPOS>ATOM
      1 C          63.9890   88.7798   14.1427 C.2     1  UNL1        0.2260
      2 O          63.5275   88.7225   12.7166 O.2     1  UNL1       -0.2748
      3 N          64.2263   87.5103   14.9058 N.am    1  UNL1       -0.2839
      4 H          64.5293   87.5480   15.8417 H       1  UNL1        0.1549
      5 C          64.0021   86.1837   14.2428 C.ar    1  UNL1        0.0504
      6 C          63.0056   86.0610   13.1283 C.ar    1  UNL1        0.0160
      7 C          62.7814   84.7343   12.4653 C.ar    1  UNL1        0.0200
      8 C          63.5536   83.5302   12.9168 C.ar    1  UNL1        0.1104
      9 C          64.5501   83.6528   14.0312 C.ar    1  UNL1        0.0200
     10 C          64.7744   84.9796   14.6942 C.ar    1  UNL1        0.0160
     11 S          63.3294   82.2036   12.2538 S.O2    1  UNL1        0.0274
     12 O          64.5604   82.4111   11.4221 O.2     1  UNL1       -0.1642
     13 O          62.0985   81.9960   13.0854 O.2     1  UNL1       -0.1642
     14 C          63.1051   80.8768   11.5908 C.ar    1  UNL1        0.1103
     15 C          63.2667   80.7437   10.1055 C.ar    1  UNL1        0.0187
     16 C          63.0424   79.4170    9.4426 C.ar    1  UNL1        0.0013
     17 C          62.6566   78.2234   10.2650 C.ar    1  UNL1        0.0001
     18 C          62.4950   78.3564   11.7503 C.ar    1  UNL1        0.0013
     19 C          62.7193   79.6831   12.4132 C.ar    1  UNL1        0.0187
     20 C          65.1258   91.2414   15.1650 C.3     1  UNL1        0.0330
     21 C          63.6890   91.2695   15.5946 C.3     1  UNL1        0.0143
     22 C          64.2132   90.1065   14.8056 C.3     1  UNL1        0.0812
     23 N          70.5517   93.7975   15.0025 N.pl3   1  UNL1       -0.3426
     24 C          69.1952   93.1584   15.0431 C.ar    1  UNL1        0.1254
     25 C          68.3235   93.3251   16.2523 C.ar    1  UNL1        0.0336
     26 C          66.9671   92.6861   16.2930 C.ar    1  UNL1        0.0001
     27 C          66.4823   91.8804   15.1243 C.ar    1  UNL1       -0.0028
     28 C          67.3539   91.7137   13.9151 C.ar    1  UNL1        0.0960
     29 N          68.7104   92.3527   13.8744 N.ar    1  UNL1       -0.2299
     30 H          70.8699   94.3263   15.7695 H       1  UNL1        0.1437
     31 H          71.1238   93.6881   14.2088 H       1  UNL1        0.1437
@<TRIPOS>BOND
     1    23    24    1
     2    24    25   ar
     3    25    26   ar
     4    26    27   ar
     5    20    27    1
     6    20    21    1
     7    21    22    1
     8    22     1    1
     9     1     2    2
    10     1     3   am
    11     3     5    1
    12     5     6   ar
    13     6     7   ar
    14     7     8   ar
    15     8    11    1
    16    11    12    2
    17    11    13    2
    18    11    14    1
    19    14    15   ar
    20    15    16   ar
    21    16    17   ar
    22    17    18   ar
    23    18    19   ar
    24     8     9   ar
    25     9    10   ar
    26    27    28   ar
    27    28    29   ar
    28    29    24   ar
    29    22    20    1
    30    10     5   ar
    31    19    14   ar
    32    23    30    1
    33    23    31    1
    34     3     4    1
@<TRIPOS>MOLECULE
*****
 31 34 0 0 0
SMALL
GASTEIGER

@<TRIPOS>ATOM
      1 C          63.8206   85.7390   14.0505 C.2     1  UNL1        0.2260
      2 O          65.2804   86.0411   14.2166 O.2     1  UNL1       -0.2748
      3 N          62.8911   86.7942   13.5281 N.am    1  UNL1       -0.2839
      4 H          61.9329   86.5959   13.4191 H       1  UNL1        0.1549
      5 C          63.4214   88.1513   13.1720 C.ar    1  UNL1        0.0504
      6 C          64.2747   88.9034   14.1498 C.ar    1  UNL1        0.0160
      7 C          64.8051   90.2606   13.7937 C.ar    1  UNL1        0.0200
      8 C          64.4822   90.8656   12.4597 C.ar    1  UNL1        0.1104
      9 C          63.6289   90.1136   11.4818 C.ar    1  UNL1        0.0200
     10 C          63.0985   88.7564   11.8379 C.ar    1  UNL1        0.0160
     11 S          65.0125   92.2227   12.1035 S.O2    1  UNL1        0.0274
     12 O          65.1842   92.5380   13.5600 O.2     1  UNL1       -0.1642
     13 O          64.8409   91.9076   10.6471 O.2     1  UNL1       -0.1642
     14 C          65.5429   93.5799   11.7473 C.ar    1  UNL1        0.1103
     15 C          66.0880   94.4771   12.8187 C.ar    1  UNL1        0.0187
     16 C          66.6183   95.8342   12.4624 C.ar    1  UNL1        0.0013
     17 C          66.6035   96.2941   11.0348 C.ar    1  UNL1        0.0001
     18 C          66.0584   95.3970    9.9634 C.ar    1  UNL1        0.0013
     19 C          65.5281   94.0399   10.3196 C.ar    1  UNL1        0.0187
     20 C          62.9600   82.9723   14.0145 C.3     1  UNL1        0.0330
     21 C          62.7018   83.4409   15.4157 C.3     1  UNL1        0.0143
     22 C          63.2902   84.3819   14.4066 C.3     1  UNL1        0.0812
     23 N          62.7938   78.6344    9.8726 N.pl3   1  UNL1       -0.3426
     24 C          62.8353   79.7189   10.9080 C.ar    1  UNL1        0.1254
     25 C          63.1526   81.1285   10.5054 C.ar    1  UNL1        0.0336
     26 C          63.1942   82.2130   11.5409 C.ar    1  UNL1        0.0001
     27 C          62.9185   81.8878   12.9790 C.ar    1  UNL1       -0.0028
     28 C          62.6012   80.4782   13.3816 C.ar    1  UNL1        0.0960
     29 N          62.5596   79.3937   12.3461 N.ar    1  UNL1       -0.2299
     30 H          62.9748   78.8478    8.9287 H       1  UNL1        0.1437
     31 H          62.5855   77.7092   10.1368 H       1  UNL1        0.1437
@<TRIPOS>BOND
     1    23    24    1
     2    24    25   ar
     3    25    26   ar
     4    26    27   ar
     5    20    27    1
     6    20    21    1
     7    21    22    1
     8    22     1    1
     9     1     2    2
    10     1     3   am
    11     3     5    1
    12     5     6   ar
    13     6     7   ar
    14     7     8   ar
    15     8    11    1
    16    11    12    2
    17    11    13    2
    18    11    14    1
    19    14    15   ar
    20    15    16   ar
    21    16    17   ar
    22    17    18   ar
    23    18    19   ar
    24     8     9   ar
    25     9    10   ar
    26    27    28   ar
    27    28    29   ar
    28    29    24   ar
    29    22    20    1
    30    10     5   ar
    31    19    14   ar
    32    23    30    1
    33    23    31    1
    34     3     4    1
