@<TRIPOS>MOLECULE
*****
 43 47 0 0 0
SMALL
GASTEIGER

@<TRIPOS>ATOM
      1 C          63.3615   84.3511   11.9465 C.ar    1  UNL1        0.2338
      2 N          63.3494   85.1489   13.2167 N.ar    1  UNL1       -0.1786
      3 C          63.0573   84.4736   14.5237 C.ar    1  UNL1        0.2198
      4 N          62.7773   83.0004   14.5608 N.ar    1  UNL1       -0.2070
      5 C          62.7895   82.2025   13.2907 C.ar    1  UNL1        0.1181
      6 S          62.5522   80.7468   13.0175 S.2     1  UNL1       -0.0673
      7 C          62.6976   80.5225   11.5416 C.ar    1  UNL1        0.0371
      8 C          63.0248   81.8395   10.9025 C.ar    1  UNL1        0.0137
      9 C          63.0816   82.8779   11.9835 C.ar    1  UNL1        0.0780
     10 N          63.0452   85.2715   15.7940 N.pl3   1  UNL1       -0.3044
     11 H          62.8346   84.8320   16.6494 H       1  UNL1        0.1496
     12 C          63.3538   86.7391   15.7608 C.3     1  UNL1        0.0745
     13 C          64.2568   87.2917   14.6981 C.3     1  UNL1        0.0369
     14 C          64.5654   88.7592   14.6649 C.3     1  UNL1        0.0741
     15 N          63.9712   89.6741   15.6944 N.3     1  UNL1       -0.2689
     16 C          63.0683   89.1215   16.7571 C.3     1  UNL1        0.0741
     17 C          62.7596   87.6539   16.7903 C.3     1  UNL1        0.0369
     18 C          64.2798   91.1417   15.6613 C.3     1  UNL1        0.0991
     19 C          64.9608   91.7380   14.4652 C.ar    1  UNL1       -0.0061
     20 C          66.2539   92.4802   14.6308 C.ar    1  UNL1       -0.0015
     21 C          66.9348   93.0765   13.4348 C.ar    1  UNL1        0.0196
     22 C          66.3228   92.9306   12.0730 C.ar    1  UNL1        0.1217
     23 C          65.0299   92.1885   11.9074 C.ar    1  UNL1        0.0196
     24 C          64.3489   91.5922   13.1035 C.ar    1  UNL1       -0.0015
     25 S          67.0038   93.5270   10.8770 S.O2    1  UNL1        0.0572
     26 N          67.6849   94.1233    9.6809 N.3     1  UNL1       -0.2035
     27 O          65.9322   94.5728   10.7882 O.2     1  UNL1       -0.1532
     28 O          68.0755   92.4811   10.9657 O.2     1  UNL1       -0.1532
     29 H          67.1522   94.9289    9.3529 H       1  UNL1        0.1442
     30 H          67.7393   93.4264    8.9381 H       1  UNL1        0.1442
     31 O          63.6536   85.0264   10.6394 O.3     1  UNL1       -0.4366
     32 C          62.6754   84.1142    7.9540 C.3     1  UNL1        0.0342
     33 C          62.0857   85.3374    8.5912 C.ar    1  UNL1        0.0124
     34 C          61.0068   86.1044    7.8858 C.ar    1  UNL1       -0.0012
     35 C          60.4170   87.3277    8.5231 C.ar    1  UNL1        0.0003
     36 C          60.9061   87.7837    9.8657 C.ar    1  UNL1       -0.0012
     37 C          61.9850   87.0166   10.5712 C.ar    1  UNL1        0.0124
     38 C          62.4741   87.4726   11.9138 C.3     1  UNL1        0.0342
     39 C          62.5747   85.7935    9.9340 C.ar    1  UNL1        0.1391
     40 C          59.3381   88.0947    7.8176 C.2     1  UNL1        0.0109
     41 C          59.6924   89.2818    6.9719 C.2     1  UNL1        0.0780
     42 C          58.6135   90.0489    6.2664 C.1     1  UNL1        0.1011
     43 N          57.5347   90.8160    5.5609 N.1     1  UNL1       -0.1908
@<TRIPOS>BOND
     1    32    33    1
     2    33    34   ar
     3    34    35   ar
     4    35    40    1
     5    40    41    2
     6    41    42    1
     7    42    43    3
     8    35    36   ar
     9    36    37   ar
    10    37    38    1
    11    37    39   ar
    12    39    31    1
    13    31     1    1
    14     1     2   ar
    15     2     3   ar
    16     3    10    1
    17    10    12    1
    18    12    13    1
    19    13    14    1
    20    14    15    1
    21    15    18    1
    22    18    19    1
    23    19    20   ar
    24    20    21   ar
    25    21    22   ar
    26    22    25    1
    27    25    26    1
    28    25    27    2
    29    25    28    2
    30    22    23   ar
    31    23    24   ar
    32    15    16    1
    33    16    17    1
    34     3     4   ar
    35     4     5   ar
    36     5     6   ar
    37     6     7   ar
    38     7     8   ar
    39     8     9   ar
    40    39    33   ar
    41     9     1   ar
    42    17    12    1
    43     9     5   ar
    44    24    19   ar
    45    10    11    1
    46    26    29    1
    47    26    30    1
@<TRIPOS>MOLECULE
*****
 43 47 0 0 0
SMALL
GASTEIGER

@<TRIPOS>ATOM
      1 C          62.8845   87.8907   12.8422 C.ar    1  UNL1        0.2338
      2 N          62.2565   87.4884   11.5407 N.ar    1  UNL1       -0.1786
      3 C          62.3755   86.0740   11.0560 C.ar    1  UNL1        0.2198
      4 N          63.1226   85.0616   11.8728 N.ar    1  UNL1       -0.2070
      5 C          63.7507   85.4638   13.1742 C.ar    1  UNL1        0.1181
      6 S          64.5425   84.6917   14.1875 S.2     1  UNL1       -0.0673
      7 C          64.9128   85.6290   15.2985 C.ar    1  UNL1        0.0371
      8 C          64.3499   86.9805   14.9718 C.ar    1  UNL1        0.0137
      9 C          63.6316   86.8784   13.6589 C.ar    1  UNL1        0.0780
     10 N          61.7475   85.6717    9.7545 N.pl3   1  UNL1       -0.3044
     11 H          61.8823   84.7619    9.4033 H       1  UNL1        0.1496
     12 C          60.9140   86.6556    8.9882 C.3     1  UNL1        0.0745
     13 C          60.9370   88.1085    9.3606 C.3     1  UNL1        0.0369
     14 C          60.1035   89.0924    8.5943 C.3     1  UNL1        0.0741
     15 N          59.2470   88.6235    7.4556 N.3     1  UNL1       -0.2689
     16 C          59.2240   87.1706    7.0833 C.3     1  UNL1        0.0741
     17 C          60.0575   86.1867    7.8496 C.3     1  UNL1        0.0369
     18 C          58.4134   89.6073    6.6893 C.3     1  UNL1        0.0991
     19 C          59.0533   90.4911    5.6600 C.ar    1  UNL1       -0.0061
     20 C          60.5294   90.4019    5.4081 C.ar    1  UNL1       -0.0015
     21 C          61.1692   91.2857    4.3788 C.ar    1  UNL1        0.0196
     22 C          60.3332   92.2586    3.6014 C.ar    1  UNL1        0.1217
     23 C          58.8572   92.3478    3.8533 C.ar    1  UNL1        0.0196
     24 C          58.2173   91.4640    4.8826 C.ar    1  UNL1       -0.0015
     25 S          60.9731   93.1424    2.5721 S.O2    1  UNL1        0.0572
     26 N          61.6130   94.0261    1.5428 N.3     1  UNL1       -0.2035
     27 O          62.2450   92.3556    2.6873 O.2     1  UNL1       -0.1532
     28 O          59.7012   93.9291    2.4569 O.2     1  UNL1       -0.1532
     29 H          62.5735   93.7220    1.3834 H       1  UNL1        0.1442
     30 H          61.6124   94.9905    1.8750 H       1  UNL1        0.1442
     31 O          62.7655   89.3052   13.3268 O.3     1  UNL1       -0.4366
     32 C          62.2112   90.4933   10.6284 C.3     1  UNL1        0.0342
     33 C          63.3934   90.9601   11.4250 C.ar    1  UNL1        0.0124
     34 C          64.2985   92.0209   10.8724 C.ar    1  UNL1       -0.0012
     35 C          65.4808   92.4877   11.6690 C.ar    1  UNL1        0.0003
     36 C          65.7578   91.8937   13.0182 C.ar    1  UNL1       -0.0012
     37 C          64.8527   90.8328   13.5708 C.ar    1  UNL1        0.0124
     38 C          65.1298   90.2388   14.9199 C.3     1  UNL1        0.0342
     39 C          63.6706   90.3660   12.7742 C.ar    1  UNL1        0.1391
     40 C          66.3859   93.5486   11.1164 C.2     1  UNL1        0.0109
     41 C          65.8046   94.7342   10.4048 C.2     1  UNL1        0.0780
     42 C          66.7097   95.7951    9.8521 C.1     1  UNL1        0.1011
     43 N          67.6148   96.8560    9.2994 N.1     1  UNL1       -0.1908
@<TRIPOS>BOND
     1    32    33    1
     2    33    34   ar
     3    34    35   ar
     4    35    40    1
     5    40    41    2
     6    41    42    1
     7    42    43    3
     8    35    36   ar
     9    36    37   ar
    10    37    38    1
    11    37    39   ar
    12    39    31    1
    13    31     1    1
    14     1     2   ar
    15     2     3   ar
    16     3    10    1
    17    10    12    1
    18    12    13    1
    19    13    14    1
    20    14    15    1
    21    15    18    1
    22    18    19    1
    23    19    20   ar
    24    20    21   ar
    25    21    22   ar
    26    22    25    1
    27    25    26    1
    28    25    27    2
    29    25    28    2
    30    22    23   ar
    31    23    24   ar
    32    15    16    1
    33    16    17    1
    34     3     4   ar
    35     4     5   ar
    36     5     6   ar
    37     6     7   ar
    38     7     8   ar
    39     8     9   ar
    40    39    33   ar
    41     9     1   ar
    42    17    12    1
    43     9     5   ar
    44    24    19   ar
    45    10    11    1
    46    26    29    1
    47    26    30    1
@<TRIPOS>MOLECULE
*****
 43 47 0 0 0
SMALL
GASTEIGER

@<TRIPOS>ATOM
      1 C          60.1851   93.5555   -0.4204 C.ar    1  UNL1        0.2338
      2 N          59.4474   93.5782    0.8854 N.ar    1  UNL1       -0.1786
      3 C          60.2094   93.6148    2.1768 C.ar    1  UNL1        0.2198
      4 N          61.7093   93.6288    2.1626 N.ar    1  UNL1       -0.2070
      5 C          62.4471   93.6060    0.8567 C.ar    1  UNL1        0.1181
      6 S          63.9113   93.6125    0.5310 S.2     1  UNL1       -0.0673
      7 C          64.0541   93.5799   -0.9618 C.ar    1  UNL1        0.0371
      8 C          62.6782   93.5533   -1.5587 C.ar    1  UNL1        0.0137
      9 C          61.6850   93.5694   -0.4347 C.ar    1  UNL1        0.0780
     10 N          59.4716   93.6375    3.4827 N.pl3   1  UNL1       -0.3044
     11 H          59.0417   94.4679    3.7908 H       1  UNL1        0.1496
     12 C          59.3888   92.3951    4.3191 C.3     1  UNL1        0.0745
     13 C          60.6325   91.6165    4.6306 C.3     1  UNL1        0.0369
     14 C          60.5497   90.3740    5.4670 C.3     1  UNL1        0.0741
     15 N          59.2233   89.9102    5.9918 N.3     1  UNL1       -0.2689
     16 C          57.9797   90.6889    5.6803 C.3     1  UNL1        0.0741
     17 C          58.0624   91.9313    4.8440 C.3     1  UNL1        0.0369
     18 C          59.1404   88.6678    6.8282 C.3     1  UNL1        0.0991
     19 C          60.0009   88.5266    8.0488 C.ar    1  UNL1       -0.0061
     20 C          60.0740   89.6430    9.0481 C.ar    1  UNL1       -0.0015
     21 C          60.9344   89.5018   10.2685 C.ar    1  UNL1        0.0196
     22 C          61.7218   88.2443   10.4898 C.ar    1  UNL1        0.1217
     23 C          61.6486   87.1280    9.4906 C.ar    1  UNL1        0.0196
     24 C          60.7882   87.2692    8.2701 C.ar    1  UNL1       -0.0015
     25 S          62.5822   88.1032   11.7104 S.O2    1  UNL1        0.0572
     26 N          63.4426   87.9620   12.9309 N.3     1  UNL1       -0.2035
     27 O          63.1701   89.4589   11.4526 O.2     1  UNL1       -0.1532
     28 O          61.9942   86.7475   11.9681 O.2     1  UNL1       -0.1532
     29 H          64.0146   88.7992   13.0423 H       1  UNL1        0.1442
     30 H          64.0482   87.1478   12.8277 H       1  UNL1        0.1442
     31 O          59.4230   93.5188   -1.7118 O.3     1  UNL1       -0.4366
     32 C          59.3056   96.4896   -2.1128 C.3     1  UNL1        0.0342
     33 C          58.0371   95.6946   -2.0198 C.ar    1  UNL1        0.0124
     34 C          56.7097   96.3850   -2.1272 C.ar    1  UNL1       -0.0012
     35 C          55.4411   95.5900   -2.0342 C.ar    1  UNL1        0.0003
     36 C          55.4998   94.1047   -1.8337 C.ar    1  UNL1       -0.0012
     37 C          56.8272   93.4142   -1.7262 C.ar    1  UNL1        0.0124
     38 C          56.8859   91.9289   -1.5258 C.3     1  UNL1        0.0342
     39 C          58.0957   94.2092   -1.8193 C.ar    1  UNL1        0.1391
     40 C          54.1137   96.2804   -2.1416 C.2     1  UNL1        0.0109
     41 C          52.8621   95.4748   -2.3264 C.2     1  UNL1        0.0780
     42 C          51.5347   96.1653   -2.4338 C.1     1  UNL1        0.1011
     43 N          50.2074   96.8557   -2.5413 N.1     1  UNL1       -0.1908
@<TRIPOS>BOND
     1    32    33    1
     2    33    34   ar
     3    34    35   ar
     4    35    40    1
     5    40    41    2
     6    41    42    1
     7    42    43    3
     8    35    36   ar
     9    36    37   ar
    10    37    38    1
    11    37    39   ar
    12    39    31    1
    13    31     1    1
    14     1     2   ar
    15     2     3   ar
    16     3    10    1
    17    10    12    1
    18    12    13    1
    19    13    14    1
    20    14    15    1
    21    15    18    1
    22    18    19    1
    23    19    20   ar
    24    20    21   ar
    25    21    22   ar
    26    22    25    1
    27    25    26    1
    28    25    27    2
    29    25    28    2
    30    22    23   ar
    31    23    24   ar
    32    15    16    1
    33    16    17    1
    34     3     4   ar
    35     4     5   ar
    36     5     6   ar
    37     6     7   ar
    38     7     8   ar
    39     8     9   ar
    40    39    33   ar
    41     9     1   ar
    42    17    12    1
    43     9     5   ar
    44    24    19   ar
    45    10    11    1
    46    26    29    1
    47    26    30    1
@<TRIPOS>MOLECULE
*****
 43 47 0 0 0
SMALL
GASTEIGER

@<TRIPOS>ATOM
      1 C          61.1115   94.4085    0.4267 C.ar    1  UNL1        0.2338
      2 N          59.9468   94.1281    1.3294 N.ar    1  UNL1       -0.1786
      3 C          60.1305   93.2707    2.5463 C.ar    1  UNL1        0.2198
      4 N          61.4789   92.6934    2.8605 N.ar    1  UNL1       -0.2070
      5 C          62.6436   92.9737    1.9578 C.ar    1  UNL1        0.1181
      6 S          64.0802   92.5457    2.0107 S.2     1  UNL1       -0.0673
      7 C          64.7844   93.1387    0.8264 C.ar    1  UNL1        0.0371
      8 C          63.7830   93.9332    0.0416 C.ar    1  UNL1        0.0137
      9 C          62.4598   93.8313    0.7408 C.ar    1  UNL1        0.0780
     10 N          58.9658   92.9903    3.4491 N.pl3   1  UNL1       -0.3044
     11 H          58.1554   93.5467    3.3943 H       1  UNL1        0.1496
     12 C          59.0357   91.8622    4.4353 C.3     1  UNL1        0.0745
     13 C          60.3617   91.2574    4.7901 C.3     1  UNL1        0.0369
     14 C          60.4317   90.1294    5.7763 C.3     1  UNL1        0.0741
     15 N          59.1757   89.6060    6.4076 N.3     1  UNL1       -0.2689
     16 C          57.8497   90.2108    6.0527 C.3     1  UNL1        0.0741
     17 C          57.7797   91.3389    5.0665 C.3     1  UNL1        0.0369
     18 C          59.2456   88.4779    7.3938 C.3     1  UNL1        0.0991
     19 C          60.1564   88.5755    8.5815 C.ar    1  UNL1       -0.0061
     20 C          60.1271   89.7977    9.4509 C.ar    1  UNL1       -0.0015
     21 C          61.0379   89.8952   10.6386 C.ar    1  UNL1        0.0196
     22 C          61.9782   88.7707   10.9571 C.ar    1  UNL1        0.1217
     23 C          62.0076   87.5486   10.0878 C.ar    1  UNL1        0.0196
     24 C          61.0967   87.4510    8.9000 C.ar    1  UNL1       -0.0015
     25 S          62.8891   88.8683   12.1448 S.O2    1  UNL1        0.0572
     26 N          63.7999   88.9659   13.3326 N.3     1  UNL1       -0.2035
     27 O          62.8437   90.3650   12.0566 O.2     1  UNL1       -0.1532
     28 O          62.9344   87.3716   12.2330 O.2     1  UNL1       -0.1532
     29 H          63.9773   89.9476   13.5452 H       1  UNL1        0.1442
     30 H          64.6821   88.4984   13.1238 H       1  UNL1        0.1442
     31 O          60.9278   95.2660   -0.7903 O.3     1  UNL1       -0.4366
     32 C          58.0286   96.0375   -0.7870 C.3     1  UNL1        0.0342
     33 C          58.5793   95.1951   -1.8992 C.ar    1  UNL1        0.0124
     34 C          57.6805   94.7383   -3.0098 C.ar    1  UNL1       -0.0012
     35 C          58.2312   93.8958   -4.1221 C.ar    1  UNL1        0.0003
     36 C          59.6807   93.5101   -4.1237 C.ar    1  UNL1       -0.0012
     37 C          60.5796   93.9668   -3.0130 C.ar    1  UNL1        0.0124
     38 C          62.0291   93.5810   -3.0146 C.3     1  UNL1        0.0342
     39 C          60.0289   94.8093   -1.9009 C.ar    1  UNL1        0.1391
     40 C          57.3323   93.4391   -5.2327 C.2     1  UNL1        0.0109
     41 C          56.7832   92.0433   -5.2272 C.2     1  UNL1        0.0780
     42 C          55.8842   91.5866   -6.3378 C.1     1  UNL1        0.1011
     43 N          54.9853   91.1300   -7.4484 N.1     1  UNL1       -0.1908
@<TRIPOS>BOND
     1    32    33    1
     2    33    34   ar
     3    34    35   ar
     4    35    40    1
     5    40    41    2
     6    41    42    1
     7    42    43    3
     8    35    36   ar
     9    36    37   ar
    10    37    38    1
    11    37    39   ar
    12    39    31    1
    13    31     1    1
    14     1     2   ar
    15     2     3   ar
    16     3    10    1
    17    10    12    1
    18    12    13    1
    19    13    14    1
    20    14    15    1
    21    15    18    1
    22    18    19    1
    23    19    20   ar
    24    20    21   ar
    25    21    22   ar
    26    22    25    1
    27    25    26    1
    28    25    27    2
    29    25    28    2
    30    22    23   ar
    31    23    24   ar
    32    15    16    1
    33    16    17    1
    34     3     4   ar
    35     4     5   ar
    36     5     6   ar
    37     6     7   ar
    38     7     8   ar
    39     8     9   ar
    40    39    33   ar
    41     9     1   ar
    42    17    12    1
    43     9     5   ar
    44    24    19   ar
    45    10    11    1
    46    26    29    1
    47    26    30    1
@<TRIPOS>MOLECULE
*****
 43 47 0 0 0
SMALL
GASTEIGER

@<TRIPOS>ATOM
      1 C          62.9857   91.0961   12.9275 C.ar    1  UNL1        0.2338
      2 N          62.7796   90.3108   14.1888 N.ar    1  UNL1       -0.1786
      3 C          63.8711   90.2402   15.2151 C.ar    1  UNL1        0.2198
      4 N          65.1689   90.9549   14.9802 N.ar    1  UNL1       -0.2070
      5 C          65.3750   91.7402   13.7189 C.ar    1  UNL1        0.1181
      6 S          66.5381   92.5420   13.2145 S.2     1  UNL1       -0.0673
      7 C          66.1652   93.1081   11.8764 C.ar    1  UNL1        0.0371
      8 C          64.7718   92.6562   11.5538 C.ar    1  UNL1        0.0137
      9 C          64.2834   91.8108   12.6926 C.ar    1  UNL1        0.0780
     10 N          63.6651   89.4549   16.4764 N.pl3   1  UNL1       -0.3044
     11 H          63.6513   89.9155   17.3464 H       1  UNL1        0.1496
     12 C          63.4800   87.9677   16.4122 C.3     1  UNL1        0.0745
     13 C          64.1099   87.1808   15.3013 C.3     1  UNL1        0.0369
     14 C          63.9248   85.6937   15.2371 C.3     1  UNL1        0.0741
     15 N          63.1099   84.9934   16.2837 N.3     1  UNL1       -0.2689
     16 C          62.4800   85.7803   17.3946 C.3     1  UNL1        0.0741
     17 C          62.6650   87.2675   17.4588 C.3     1  UNL1        0.0369
     18 C          62.9247   83.5062   16.2196 C.3     1  UNL1        0.0991
     19 C          62.9670   82.8016   14.8961 C.ar    1  UNL1       -0.0061
     20 C          64.1755   82.9295   14.0166 C.ar    1  UNL1       -0.0015
     21 C          64.2177   82.2249   12.6931 C.ar    1  UNL1        0.0196
     22 C          63.0516   81.3925   12.2490 C.ar    1  UNL1        0.1217
     23 C          61.8432   81.2646   13.1284 C.ar    1  UNL1        0.0196
     24 C          61.8009   81.9692   14.4519 C.ar    1  UNL1       -0.0015
     25 S          63.0939   80.6879   10.9255 S.O2    1  UNL1        0.0572
     26 N          63.1362   79.9833    9.6019 N.3     1  UNL1       -0.2035
     27 O          63.6028   81.9401   10.2751 O.2     1  UNL1       -0.1532
     28 O          62.5850   79.4357   11.5758 O.2     1  UNL1       -0.1532
     29 H          63.4720   80.6264    8.8850 H       1  UNL1        0.1442
     30 H          62.1996   79.6613    9.3581 H       1  UNL1        0.1442
     31 O          61.8940   91.1667   11.9012 O.3     1  UNL1       -0.4366
     32 C          63.7571   90.2505    9.7356 C.3     1  UNL1        0.0342
     33 C          62.4865   89.4984    9.9997 C.ar    1  UNL1        0.0124
     34 C          62.1474   88.2882    9.1810 C.ar    1  UNL1       -0.0012
     35 C          60.8766   87.5360    9.4451 C.ar    1  UNL1        0.0003
     36 C          59.9451   87.9941   10.5278 C.ar    1  UNL1       -0.0012
     37 C          60.2842   89.2044   11.3465 C.ar    1  UNL1        0.0124
     38 C          59.3528   89.6625   12.4292 C.3     1  UNL1        0.0342
     39 C          61.5549   89.9565   11.0825 C.ar    1  UNL1        0.1391
     40 C          60.5375   86.3257    8.6263 C.2     1  UNL1        0.0109
     41 C          61.4162   85.9269    7.4780 C.2     1  UNL1        0.0780
     42 C          61.0771   84.7166    6.6592 C.1     1  UNL1        0.1011
     43 N          60.7380   83.5063    5.8405 N.1     1  UNL1       -0.1908
@<TRIPOS>BOND
     1    32    33    1
     2    33    34   ar
     3    34    35   ar
     4    35    40    1
     5    40    41    2
     6    41    42    1
     7    42    43    3
     8    35    36   ar
     9    36    37   ar
    10    37    38    1
    11    37    39   ar
    12    39    31    1
    13    31     1    1
    14     1     2   ar
    15     2     3   ar
    16     3    10    1
    17    10    12    1
    18    12    13    1
    19    13    14    1
    20    14    15    1
    21    15    18    1
    22    18    19    1
    23    19    20   ar
    24    20    21   ar
    25    21    22   ar
    26    22    25    1
    27    25    26    1
    28    25    27    2
    29    25    28    2
    30    22    23   ar
    31    23    24   ar
    32    15    16    1
    33    16    17    1
    34     3     4   ar
    35     4     5   ar
    36     5     6   ar
    37     6     7   ar
    38     7     8   ar
    39     8     9   ar
    40    39    33   ar
    41     9     1   ar
    42    17    12    1
    43     9     5   ar
    44    24    19   ar
    45    10    11    1
    46    26    29    1
    47    26    30    1
