@<TRIPOS>MOLECULE
*****
 42 46 0 0 0
SMALL
GASTEIGER

@<TRIPOS>ATOM
      1 N          62.9395   85.9006   14.3396 N.am    1  UNL1       -0.2533
      2 C          63.4996   87.1800   13.7924 C.2     1  UNL1        0.3092
      3 O          63.8365   87.2884   12.3347 O.2     1  UNL1       -0.2521
      4 N          63.7229   88.3511   14.7028 N.am    1  UNL1       -0.2680
      5 H          62.7184   85.8295   15.2964 H       1  UNL1        0.1578
      6 H          63.5018   88.2799   15.6595 H       1  UNL1        0.1564
      7 C          64.2830   89.6304   14.1556 C.ar    1  UNL1        0.0517
      8 C          63.6216   90.2997   12.9874 C.ar    1  UNL1        0.0160
      9 C          64.1817   91.5790   12.4402 C.ar    1  UNL1        0.0159
     10 C          65.4033   92.1892   13.0612 C.ar    1  UNL1        0.0494
     11 C          66.0647   91.5199   14.2294 C.ar    1  UNL1        0.0159
     12 C          65.5045   90.2405   14.7766 C.ar    1  UNL1        0.0160
     13 N          65.9634   93.4686   12.5140 N.pl3   1  UNL1       -0.2979
     14 H          65.8215   94.3145   12.9972 H       1  UNL1        0.1536
     15 C          66.7397   93.4591   11.2305 C.ar    1  UNL1        0.1353
     16 N          67.6746   92.3259   10.9279 N.ar    1  UNL1       -0.2089
     17 C          68.4509   92.3164    9.6444 C.ar    1  UNL1        0.2000
     18 N          68.2923   93.4401    8.6636 N.ar    1  UNL1       -0.2239
     19 C          67.3573   94.5734    8.9663 C.ar    1  UNL1        0.0857
     20 C          67.1986   95.6972    7.9855 C.ar    1  UNL1        0.0192
     21 C          66.2637   96.8304    8.2881 C.ar    1  UNL1        0.0015
     22 C          65.4874   96.8398    9.5716 C.ar    1  UNL1        0.0002
     23 C          65.6460   95.7161   10.5524 C.ar    1  UNL1        0.0043
     24 C          66.5810   94.5829   10.2497 C.ar    1  UNL1        0.0494
     25 C          62.6129   82.4635   12.5662 C.ar    1  UNL1        0.0810
     26 C          62.9737   83.2904   13.7646 C.ar    1  UNL1        0.0509
     27 C          62.7163   84.7296   13.4292 C.ar    1  UNL1        0.1380
     28 N          62.1964   84.7921   12.0236 N.ar    1  UNL1       -0.2162
     29 N          62.1325   83.3916   11.4902 N.ar    1  UNL1       -0.1683
     30 C          61.8085   86.0367   11.2815 C.ar    1  UNL1        0.0854
     31 C          62.3621   86.2964    9.9118 C.ar    1  UNL1        0.0193
     32 C          61.9742   87.5410    9.1698 C.ar    1  UNL1        0.0028
     33 C          61.0328   88.5258    9.7974 C.ar    1  UNL1        0.0142
     34 C          60.4792   88.2660   11.1671 C.ar    1  UNL1        0.0430
     35 N          59.5378   89.2508   11.7948 N.pl3   1  UNL1       -0.3570
     36 C          60.8671   87.0215   11.9091 C.ar    1  UNL1        0.0333
     37 H          59.2832   90.0676   11.3077 H       1  UNL1        0.1424
     38 H          59.1745   89.0802   12.6937 H       1  UNL1        0.1424
     39 C          62.2929   80.8419   13.8958 C.3     1  UNL1        0.0060
     40 C          62.7147   80.9706   12.4621 C.3     1  UNL1        0.0372
     41 C          63.1365   81.0993   11.0284 C.3     1  UNL1        0.0060
     42 C          62.8165   79.4777   12.3581 C.3     1  UNL1        0.0060
@<TRIPOS>BOND
     1    39    40    1
     2    40    41    1
     3    40    42    1
     4    40    25    1
     5    25    26   ar
     6    26    27   ar
     7    27     1    1
     8     1     2   am
     9     2     3    2
    10     2     4   am
    11     4     7    1
    12     7     8   ar
    13     8     9   ar
    14     9    10   ar
    15    10    13    1
    16    13    15    1
    17    15    16   ar
    18    16    17   ar
    19    17    18   ar
    20    18    19   ar
    21    19    20   ar
    22    20    21   ar
    23    21    22   ar
    24    22    23   ar
    25    23    24   ar
    26    10    11   ar
    27    11    12   ar
    28    27    28   ar
    29    28    30    1
    30    30    31   ar
    31    31    32   ar
    32    32    33   ar
    33    33    34   ar
    34    34    35    1
    35    34    36   ar
    36    28    29   ar
    37    29    25   ar
    38    12     7   ar
    39    36    30   ar
    40    24    15   ar
    41    24    19   ar
    42     1     5    1
    43     4     6    1
    44    13    14    1
    45    35    37    1
    46    35    38    1
@<TRIPOS>MOLECULE
*****
 42 46 0 0 0
SMALL
GASTEIGER

@<TRIPOS>ATOM
      1 N          63.9579   90.6482   14.0164 N.am    1  UNL1       -0.2533
      2 C          64.0037   89.1495   14.0588 C.2     1  UNL1        0.3092
      3 O          64.3750   88.3754   12.8288 O.2     1  UNL1       -0.2521
      4 N          63.6781   88.4249   15.3312 N.am    1  UNL1       -0.2680
      5 H          63.7142   91.1563   14.8236 H       1  UNL1        0.1578
      6 H          63.4343   88.9330   16.1384 H       1  UNL1        0.1564
      7 C          63.7238   86.9263   15.3736 C.ar    1  UNL1        0.0517
      8 C          62.5271   86.1523   15.8417 C.ar    1  UNL1        0.0160
      9 C          62.5729   84.6537   15.8842 C.ar    1  UNL1        0.0159
     10 C          63.8153   83.9288   15.4586 C.ar    1  UNL1        0.0494
     11 C          65.0119   84.7028   14.9905 C.ar    1  UNL1        0.0159
     12 C          64.9662   86.2015   14.9480 C.ar    1  UNL1        0.0160
     13 N          63.8610   82.4302   15.5010 N.pl3   1  UNL1       -0.2979
     14 H          64.2251   81.9710   16.2922 H       1  UNL1        0.1536
     15 C          63.3521   81.6310   14.3382 C.ar    1  UNL1        0.1353
     16 N          62.5685   80.3745   14.5772 N.ar    1  UNL1       -0.2089
     17 C          62.0595   79.5754   13.4143 C.ar    1  UNL1        0.2000
     18 N          62.3341   80.0327   12.0124 N.ar    1  UNL1       -0.2239
     19 C          63.1177   81.2893   11.7733 C.ar    1  UNL1        0.0857
     20 C          63.3923   81.7466   10.3714 C.ar    1  UNL1        0.0192
     21 C          64.1759   83.0031   10.1324 C.ar    1  UNL1        0.0015
     22 C          64.6849   83.8023   11.2953 C.ar    1  UNL1        0.0002
     23 C          64.4103   83.3449   12.6972 C.ar    1  UNL1        0.0043
     24 C          63.6267   82.0884   12.9362 C.ar    1  UNL1        0.0494
     25 C          65.3611   92.8260   11.1260 C.ar    1  UNL1        0.0810
     26 C          65.4078   92.3460   12.5464 C.ar    1  UNL1        0.0509
     27 C          64.2835   91.3728   12.7440 C.ar    1  UNL1        0.1380
     28 N          63.5421   91.2514   11.4457 N.ar    1  UNL1       -0.2162
     29 N          64.2080   92.1495   10.4457 N.ar    1  UNL1       -0.1683
     30 C          62.3448   90.3841   11.1918 C.ar    1  UNL1        0.0854
     31 C          61.0455   90.6791   11.8809 C.ar    1  UNL1        0.0193
     32 C          59.8482   89.8118   11.6271 C.ar    1  UNL1        0.0028
     33 C          59.9503   88.6496   10.6843 C.ar    1  UNL1        0.0142
     34 C          61.2496   88.3546    9.9953 C.ar    1  UNL1        0.0430
     35 N          61.3517   87.1924    9.0525 N.pl3   1  UNL1       -0.3570
     36 C          62.4469   89.2219   10.2491 C.ar    1  UNL1        0.0333
     37 H          60.5660   86.6232    8.8859 H       1  UNL1        0.1424
     38 H          62.2046   86.9989    8.6003 H       1  UNL1        0.1424
     39 C          67.2440   92.6924   10.1582 C.3     1  UNL1        0.0060
     40 C          66.3023   93.8098   10.4965 C.3     1  UNL1        0.0372
     41 C          65.3606   94.9273   10.8349 C.3     1  UNL1        0.0060
     42 C          67.2435   94.7937    9.8670 C.3     1  UNL1        0.0060
@<TRIPOS>BOND
     1    39    40    1
     2    40    41    1
     3    40    42    1
     4    40    25    1
     5    25    26   ar
     6    26    27   ar
     7    27     1    1
     8     1     2   am
     9     2     3    2
    10     2     4   am
    11     4     7    1
    12     7     8   ar
    13     8     9   ar
    14     9    10   ar
    15    10    13    1
    16    13    15    1
    17    15    16   ar
    18    16    17   ar
    19    17    18   ar
    20    18    19   ar
    21    19    20   ar
    22    20    21   ar
    23    21    22   ar
    24    22    23   ar
    25    23    24   ar
    26    10    11   ar
    27    11    12   ar
    28    27    28   ar
    29    28    30    1
    30    30    31   ar
    31    31    32   ar
    32    32    33   ar
    33    33    34   ar
    34    34    35    1
    35    34    36   ar
    36    28    29   ar
    37    29    25   ar
    38    12     7   ar
    39    36    30   ar
    40    24    15   ar
    41    24    19   ar
    42     1     5    1
    43     4     6    1
    44    13    14    1
    45    35    37    1
    46    35    38    1
@<TRIPOS>MOLECULE
*****
 42 46 0 0 0
SMALL
GASTEIGER

@<TRIPOS>ATOM
      1 N          63.2261   86.9380   13.8147 N.am    1  UNL1       -0.2533
      2 C          63.7916   88.2679   13.4124 C.2     1  UNL1        0.3092
      3 O          64.0642   88.5605   11.9667 O.2     1  UNL1       -0.2521
      4 N          64.0845   89.3050   14.4558 N.am    1  UNL1       -0.2680
      5 H          63.0472   86.7459   14.7636 H       1  UNL1        0.1578
      6 H          63.9056   89.1128   15.4046 H       1  UNL1        0.1564
      7 C          64.6500   90.6347   14.0535 C.ar    1  UNL1        0.0517
      8 C          65.6143   91.3441   14.9574 C.ar    1  UNL1        0.0160
      9 C          66.1797   92.6739   14.5551 C.ar    1  UNL1        0.0159
     10 C          65.7810   93.2943   13.2489 C.ar    1  UNL1        0.0494
     11 C          64.8168   92.5849   12.3450 C.ar    1  UNL1        0.0159
     12 C          64.2513   91.2551   12.7473 C.ar    1  UNL1        0.0160
     13 N          66.3465   94.6241   12.8466 N.pl3   1  UNL1       -0.2979
     14 H          66.6553   95.2564   13.5352 H       1  UNL1        0.1536
     15 C          66.4416   94.9906   11.3951 C.ar    1  UNL1        0.1353
     16 N          65.7778   96.2379   10.8915 N.ar    1  UNL1       -0.2089
     17 C          65.8729   96.6044    9.4401 C.ar    1  UNL1        0.2000
     18 N          66.6317   95.7236    8.4923 N.ar    1  UNL1       -0.2239
     19 C          67.2956   94.4763    8.9959 C.ar    1  UNL1        0.0857
     20 C          68.0544   93.5955    8.0481 C.ar    1  UNL1        0.0192
     21 C          68.7182   92.3483    8.5518 C.ar    1  UNL1        0.0015
     22 C          68.6231   91.9818   10.0032 C.ar    1  UNL1        0.0002
     23 C          67.8643   92.8625   10.9510 C.ar    1  UNL1        0.0043
     24 C          67.2005   94.1098   10.4473 C.ar    1  UNL1        0.0494
     25 C          62.8776   83.8008   11.5559 C.ar    1  UNL1        0.0810
     26 C          63.4004   84.4756   12.7894 C.ar    1  UNL1        0.0509
     27 C          62.9332   85.9009   12.7714 C.ar    1  UNL1        0.1380
     28 N          62.1218   86.1070   11.5268 N.ar    1  UNL1       -0.2162
     29 N          62.0874   84.8091   10.7756 N.ar    1  UNL1       -0.1683
     30 C          61.4607   87.3864   11.1070 C.ar    1  UNL1        0.0854
     31 C          61.8958   88.0776    9.8487 C.ar    1  UNL1        0.0193
     32 C          61.2348   89.3570    9.4290 C.ar    1  UNL1        0.0028
     33 C          60.1388   89.9452   10.2674 C.ar    1  UNL1        0.0142
     34 C          59.7038   89.2540   11.5255 C.ar    1  UNL1        0.0430
     35 N          58.6078   89.8421   12.3639 N.pl3   1  UNL1       -0.3570
     36 C          60.3648   87.9746   11.9453 C.ar    1  UNL1        0.0333
     37 H          58.1739   90.6818   12.0884 H       1  UNL1        0.1424
     38 H          58.3223   89.3884   13.1897 H       1  UNL1        0.1424
     39 C          62.2447   81.9241   12.3158 C.3     1  UNL1        0.0060
     40 C          63.1051   82.3692   11.1705 C.3     1  UNL1        0.0372
     41 C          63.9655   82.8142   10.0253 C.3     1  UNL1        0.0060
     42 C          63.3326   80.9375   10.7851 C.3     1  UNL1        0.0060
@<TRIPOS>BOND
     1    39    40    1
     2    40    41    1
     3    40    42    1
     4    40    25    1
     5    25    26   ar
     6    26    27   ar
     7    27     1    1
     8     1     2   am
     9     2     3    2
    10     2     4   am
    11     4     7    1
    12     7     8   ar
    13     8     9   ar
    14     9    10   ar
    15    10    13    1
    16    13    15    1
    17    15    16   ar
    18    16    17   ar
    19    17    18   ar
    20    18    19   ar
    21    19    20   ar
    22    20    21   ar
    23    21    22   ar
    24    22    23   ar
    25    23    24   ar
    26    10    11   ar
    27    11    12   ar
    28    27    28   ar
    29    28    30    1
    30    30    31   ar
    31    31    32   ar
    32    32    33   ar
    33    33    34   ar
    34    34    35    1
    35    34    36   ar
    36    28    29   ar
    37    29    25   ar
    38    12     7   ar
    39    36    30   ar
    40    24    15   ar
    41    24    19   ar
    42     1     5    1
    43     4     6    1
    44    13    14    1
    45    35    37    1
    46    35    38    1
@<TRIPOS>MOLECULE
*****
 42 46 0 0 0
SMALL
GASTEIGER

@<TRIPOS>ATOM
      1 N          61.5572   86.6518   12.0912 N.am    1  UNL1       -0.2533
      2 C          62.5541   87.7571   12.2772 C.2     1  UNL1        0.3092
      3 O          64.0132   87.4363   12.4117 O.2     1  UNL1       -0.2521
      4 N          62.0918   89.1831   12.3288 N.am    1  UNL1       -0.2680
      5 H          60.5995   86.8623   12.0029 H       1  UNL1        0.1578
      6 H          61.1342   89.3937   12.2406 H       1  UNL1        0.1564
      7 C          63.0887   90.2884   12.5149 C.ar    1  UNL1        0.0517
      8 C          63.4233   91.1973   11.3694 C.ar    1  UNL1        0.0160
      9 C          64.4201   92.3025   11.5555 C.ar    1  UNL1        0.0159
     10 C          65.0824   92.4990   12.8870 C.ar    1  UNL1        0.0494
     11 C          64.7477   91.5901   14.0324 C.ar    1  UNL1        0.0159
     12 C          63.7509   90.4848   13.8463 C.ar    1  UNL1        0.0160
     13 N          66.0792   93.6043   13.0730 N.pl3   1  UNL1       -0.2979
     14 H          66.5068   93.7391   13.9495 H       1  UNL1        0.1536
     15 C          66.4246   94.5041   11.9237 C.ar    1  UNL1        0.1353
     16 N          66.0515   95.9562   11.9696 N.ar    1  UNL1       -0.2089
     17 C          66.3969   96.8560   10.8202 C.ar    1  UNL1        0.2000
     18 N          67.1154   96.3037    9.6249 N.ar    1  UNL1       -0.2239
     19 C          67.4885   94.8515    9.5790 C.ar    1  UNL1        0.0857
     20 C          68.2070   94.2992    8.3837 C.ar    1  UNL1        0.0192
     21 C          68.5800   92.8471    8.3378 C.ar    1  UNL1        0.0015
     22 C          68.2346   91.9473    9.4872 C.ar    1  UNL1        0.0002
     23 C          67.5162   92.4996   10.6824 C.ar    1  UNL1        0.0043
     24 C          67.1431   93.9517   10.7283 C.ar    1  UNL1        0.0494
     25 C          62.8039   83.0279   12.7066 C.ar    1  UNL1        0.0810
     26 C          62.4095   84.3821   13.2171 C.ar    1  UNL1        0.0509
     27 C          62.0194   85.2257   12.0396 C.ar    1  UNL1        0.1380
     28 N          62.1728   84.3928   10.8016 N.ar    1  UNL1       -0.2162
     29 N          62.6576   83.0345   11.2138 N.ar    1  UNL1       -0.1683
     30 C          61.8908   84.8397    9.3977 C.ar    1  UNL1        0.0854
     31 C          62.8228   84.4556    8.2869 C.ar    1  UNL1        0.0193
     32 C          62.5408   84.9025    6.8831 C.ar    1  UNL1        0.0028
     33 C          61.3269   85.7334    6.5901 C.ar    1  UNL1        0.0142
     34 C          60.3949   86.1175    7.7008 C.ar    1  UNL1        0.0430
     35 N          59.1810   86.9484    7.4078 N.pl3   1  UNL1       -0.3570
     36 C          60.6769   85.6706    9.1047 C.ar    1  UNL1        0.0333
     37 H          58.9959   87.2418    6.4864 H       1  UNL1        0.1424
     38 H          58.5693   87.2005    8.1369 H       1  UNL1        0.1424
     39 C          62.8154   80.9196   12.4724 C.3     1  UNL1        0.0060
     40 C          63.2639   81.8703   13.5424 C.3     1  UNL1        0.0372
     41 C          63.7124   82.8211   14.6124 C.3     1  UNL1        0.0060
     42 C          63.7239   80.7128   14.3781 C.3     1  UNL1        0.0060
@<TRIPOS>BOND
     1    39    40    1
     2    40    41    1
     3    40    42    1
     4    40    25    1
     5    25    26   ar
     6    26    27   ar
     7    27     1    1
     8     1     2   am
     9     2     3    2
    10     2     4   am
    11     4     7    1
    12     7     8   ar
    13     8     9   ar
    14     9    10   ar
    15    10    13    1
    16    13    15    1
    17    15    16   ar
    18    16    17   ar
    19    17    18   ar
    20    18    19   ar
    21    19    20   ar
    22    20    21   ar
    23    21    22   ar
    24    22    23   ar
    25    23    24   ar
    26    10    11   ar
    27    11    12   ar
    28    27    28   ar
    29    28    30    1
    30    30    31   ar
    31    31    32   ar
    32    32    33   ar
    33    33    34   ar
    34    34    35    1
    35    34    36   ar
    36    28    29   ar
    37    29    25   ar
    38    12     7   ar
    39    36    30   ar
    40    24    15   ar
    41    24    19   ar
    42     1     5    1
    43     4     6    1
    44    13    14    1
    45    35    37    1
    46    35    38    1
@<TRIPOS>MOLECULE
*****
 42 46 0 0 0
SMALL
GASTEIGER

@<TRIPOS>ATOM
      1 N          60.7019   87.9688   10.0045 N.am    1  UNL1       -0.2533
      2 C          60.5672   88.9433    8.8722 C.2     1  UNL1        0.3092
      3 O          61.4410   90.1615    8.8231 O.2     1  UNL1       -0.2521
      4 N          59.5586   88.6996    7.7889 N.am    1  UNL1       -0.2680
      5 H          60.1284   87.1693   10.0368 H       1  UNL1        0.1578
      6 H          58.9851   87.9001    7.8212 H       1  UNL1        0.1564
      7 C          59.4238   89.6741    6.6566 C.ar    1  UNL1        0.0517
      8 C          60.6429   90.1328    5.9127 C.ar    1  UNL1        0.0160
      9 C          60.5082   91.1072    4.7804 C.ar    1  UNL1        0.0159
     10 C          59.1542   91.6230    4.3919 C.ar    1  UNL1        0.0494
     11 C          57.9351   91.1643    5.1358 C.ar    1  UNL1        0.0159
     12 C          58.0700   90.1898    6.2682 C.ar    1  UNL1        0.0160
     13 N          59.0194   92.5975    3.2595 N.pl3   1  UNL1       -0.2979
     14 H          58.1873   93.1120    3.1493 H       1  UNL1        0.1536
     15 C          60.1525   92.7881    2.2952 C.ar    1  UNL1        0.1353
     16 N          61.5659   92.8230    2.7961 N.ar    1  UNL1       -0.2089
     17 C          62.6989   93.0136    1.8318 C.ar    1  UNL1        0.2000
     18 N          62.4185   93.1693    0.3665 N.ar    1  UNL1       -0.2239
     19 C          61.0050   93.1344   -0.1345 C.ar    1  UNL1        0.0857
     20 C          60.7246   93.2901   -1.5998 C.ar    1  UNL1        0.0192
     21 C          59.3111   93.2551   -2.1007 C.ar    1  UNL1        0.0015
     22 C          58.1781   93.0645   -1.1364 C.ar    1  UNL1        0.0002
     23 C          58.4585   92.9089    0.3289 C.ar    1  UNL1        0.0043
     24 C          59.8720   92.9438    0.8298 C.ar    1  UNL1        0.0494
     25 C          63.0555   89.3078   12.7854 C.ar    1  UNL1        0.0810
     26 C          61.9683   89.5212   11.7742 C.ar    1  UNL1        0.0509
     27 C          61.7105   88.2125   11.0878 C.ar    1  UNL1        0.1380
     28 N          62.6383   87.1905   11.6748 N.ar    1  UNL1       -0.2162
     29 N          63.4696   87.8674   12.7240 N.ar    1  UNL1       -0.1683
     30 C          62.7205   85.7453   11.2817 C.ar    1  UNL1        0.0854
     31 C          62.9776   85.3704    9.8521 C.ar    1  UNL1        0.0193
     32 C          63.0597   83.9252    9.4590 C.ar    1  UNL1        0.0028
     33 C          62.8848   82.8549   10.4953 C.ar    1  UNL1        0.0142
     34 C          62.6277   83.2298   11.9247 C.ar    1  UNL1        0.0430
     35 N          62.4528   82.1595   12.9610 N.pl3   1  UNL1       -0.3570
     36 C          62.5456   84.6750   12.3178 C.ar    1  UNL1        0.0333
     37 H          62.5067   81.2110   12.7029 H       1  UNL1        0.1424
     38 H          62.2841   82.4056   13.8992 H       1  UNL1        0.1424
     39 C          63.7994   91.2780   12.5306 C.3     1  UNL1        0.0060
     40 C          63.6281   90.3517   13.6979 C.3     1  UNL1        0.0372
     41 C          63.4567   89.4253   14.8651 C.3     1  UNL1        0.0060
     42 C          64.2006   91.3955   14.6103 C.3     1  UNL1        0.0060
@<TRIPOS>BOND
     1    39    40    1
     2    40    41    1
     3    40    42    1
     4    40    25    1
     5    25    26   ar
     6    26    27   ar
     7    27     1    1
     8     1     2   am
     9     2     3    2
    10     2     4   am
    11     4     7    1
    12     7     8   ar
    13     8     9   ar
    14     9    10   ar
    15    10    13    1
    16    13    15    1
    17    15    16   ar
    18    16    17   ar
    19    17    18   ar
    20    18    19   ar
    21    19    20   ar
    22    20    21   ar
    23    21    22   ar
    24    22    23   ar
    25    23    24   ar
    26    10    11   ar
    27    11    12   ar
    28    27    28   ar
    29    28    30    1
    30    30    31   ar
    31    31    32   ar
    32    32    33   ar
    33    33    34   ar
    34    34    35    1
    35    34    36   ar
    36    28    29   ar
    37    29    25   ar
    38    12     7   ar
    39    36    30   ar
    40    24    15   ar
    41    24    19   ar
    42     1     5    1
    43     4     6    1
    44    13    14    1
    45    35    37    1
    46    35    38    1
@<TRIPOS>MOLECULE
*****
 42 46 0 0 0
SMALL
GASTEIGER

@<TRIPOS>ATOM
      1 N          61.5842   85.5529   11.7879 N.am    1  UNL1       -0.2533
      2 C          62.4549   86.7677   11.9156 C.2     1  UNL1        0.3092
      3 O          63.8939   86.6207   12.3128 O.2     1  UNL1       -0.2521
      4 N          61.8867   88.1294   11.6460 N.am    1  UNL1       -0.2680
      5 H          60.6398   85.6494   11.5272 H       1  UNL1        0.1578
      6 H          60.9422   88.2259   11.3852 H       1  UNL1        0.1564
      7 C          62.7573   89.3442   11.7736 C.ar    1  UNL1        0.0517
      8 C          63.4506   89.6371   13.0711 C.ar    1  UNL1        0.0160
      9 C          64.3212   90.8518   13.1988 C.ar    1  UNL1        0.0159
     10 C          64.4986   91.7738   12.0289 C.ar    1  UNL1        0.0494
     11 C          63.8053   91.4809   10.7313 C.ar    1  UNL1        0.0159
     12 C          62.9346   90.2661   10.6037 C.ar    1  UNL1        0.0160
     13 N          65.3692   92.9885   12.1565 N.pl3   1  UNL1       -0.2979
     14 H          65.2022   93.6405   12.8750 H       1  UNL1        0.1536
     15 C          66.4943   93.2099   11.1895 C.ar    1  UNL1        0.1353
     16 N          67.6155   92.2171   11.1033 N.ar    1  UNL1       -0.2089
     17 C          68.7406   92.4385   10.1363 C.ar    1  UNL1        0.2000
     18 N          68.7445   93.6526    9.2554 N.ar    1  UNL1       -0.2239
     19 C          67.6233   94.6454    9.3415 C.ar    1  UNL1        0.0857
     20 C          67.6273   95.8594    8.4607 C.ar    1  UNL1        0.0192
     21 C          66.5061   96.8521    8.5468 C.ar    1  UNL1        0.0015
     22 C          65.3810   96.6308    9.5139 C.ar    1  UNL1        0.0002
     23 C          65.3771   95.4167   10.3947 C.ar    1  UNL1        0.0043
     24 C          66.4982   94.4240   10.3086 C.ar    1  UNL1        0.0494
     25 C          62.7501   81.8508   11.8197 C.ar    1  UNL1        0.0810
     26 C          62.0385   82.9947   11.1599 C.ar    1  UNL1        0.0509
     27 C          62.1525   84.1912   12.0575 C.ar    1  UNL1        0.1380
     28 N          62.9346   83.7867   13.2719 N.ar    1  UNL1       -0.2162
     29 N          63.3039   82.3404   13.1250 N.ar    1  UNL1       -0.1683
     30 C          63.2857   84.6731   14.4300 C.ar    1  UNL1        0.0854
     31 C          64.7026   85.1251   14.6258 C.ar    1  UNL1        0.0193
     32 C          65.0537   86.0115   15.7839 C.ar    1  UNL1        0.0028
     33 C          63.9880   86.4458   16.7460 C.ar    1  UNL1        0.0142
     34 C          62.5713   85.9938   16.5502 C.ar    1  UNL1        0.0430
     35 N          61.5056   86.4281   17.5124 N.pl3   1  UNL1       -0.3570
     36 C          62.2201   85.1074   15.3921 C.ar    1  UNL1        0.0333
     37 H          61.7361   87.0098   18.2724 H       1  UNL1        0.1424
     38 H          60.5757   86.1314   17.3838 H       1  UNL1        0.1424
     39 C          63.1357   81.0259    9.9038 C.3     1  UNL1        0.0060
     40 C          62.8843   80.4614   11.2706 C.3     1  UNL1        0.0372
     41 C          62.6330   79.8970   12.6374 C.3     1  UNL1        0.0060
     42 C          63.0185   79.0720   10.7215 C.3     1  UNL1        0.0060
@<TRIPOS>BOND
     1    39    40    1
     2    40    41    1
     3    40    42    1
     4    40    25    1
     5    25    26   ar
     6    26    27   ar
     7    27     1    1
     8     1     2   am
     9     2     3    2
    10     2     4   am
    11     4     7    1
    12     7     8   ar
    13     8     9   ar
    14     9    10   ar
    15    10    13    1
    16    13    15    1
    17    15    16   ar
    18    16    17   ar
    19    17    18   ar
    20    18    19   ar
    21    19    20   ar
    22    20    21   ar
    23    21    22   ar
    24    22    23   ar
    25    23    24   ar
    26    10    11   ar
    27    11    12   ar
    28    27    28   ar
    29    28    30    1
    30    30    31   ar
    31    31    32   ar
    32    32    33   ar
    33    33    34   ar
    34    34    35    1
    35    34    36   ar
    36    28    29   ar
    37    29    25   ar
    38    12     7   ar
    39    36    30   ar
    40    24    15   ar
    41    24    19   ar
    42     1     5    1
    43     4     6    1
    44    13    14    1
    45    35    37    1
    46    35    38    1
@<TRIPOS>MOLECULE
*****
 42 46 0 0 0
SMALL
GASTEIGER

@<TRIPOS>ATOM
      1 N          59.7487   86.8054    8.7358 N.am    1  UNL1       -0.2533
      2 C          59.9603   88.0098    7.8671 C.2     1  UNL1        0.3092
      3 O          61.2838   88.7158    7.8732 O.2     1  UNL1       -0.2521
      4 N          58.8484   88.5083    6.9923 N.am    1  UNL1       -0.2680
      5 H          58.8801   86.3420    8.7318 H       1  UNL1        0.1578
      6 H          57.9798   88.0450    6.9883 H       1  UNL1        0.1564
      7 C          59.0600   89.7127    6.1237 C.ar    1  UNL1        0.0517
      8 C          60.4381   90.0572    5.6419 C.ar    1  UNL1        0.0160
      9 C          60.6496   91.2616    4.7732 C.ar    1  UNL1        0.0159
     10 C          59.4830   92.1216    4.3863 C.ar    1  UNL1        0.0494
     11 C          58.1049   91.7771    4.8681 C.ar    1  UNL1        0.0159
     12 C          57.8934   90.5726    5.7368 C.ar    1  UNL1        0.0160
     13 N          59.6946   93.3260    3.5176 N.pl3   1  UNL1       -0.2979
     14 H          59.6613   94.2281    3.9104 H       1  UNL1        0.1536
     15 C          59.9569   93.1559    2.0506 C.ar    1  UNL1        0.1353
     16 N          58.8214   92.8662    1.1143 N.ar    1  UNL1       -0.2089
     17 C          59.0836   92.6961   -0.3528 C.ar    1  UNL1        0.2000
     18 N          60.4814   92.8157   -0.8836 N.ar    1  UNL1       -0.2239
     19 C          61.6171   93.1054    0.0527 C.ar    1  UNL1        0.0857
     20 C          63.0149   93.2250   -0.4781 C.ar    1  UNL1        0.0192
     21 C          64.1504   93.5147    0.4582 C.ar    1  UNL1        0.0015
     22 C          63.8881   93.6848    1.9252 C.ar    1  UNL1        0.0002
     23 C          62.4903   93.5652    2.4560 C.ar    1  UNL1        0.0043
     24 C          61.3548   93.2755    1.5198 C.ar    1  UNL1        0.0494
     25 C          62.4993   84.8554   10.6587 C.ar    1  UNL1        0.0810
     26 C          61.3970   84.9064    9.6426 C.ar    1  UNL1        0.0509
     27 C          60.8606   86.3069    9.6106 C.ar    1  UNL1        0.1380
     28 N          61.6313   87.1213   10.6069 N.ar    1  UNL1       -0.2162
     29 N          62.6441   86.2243   11.2547 N.ar    1  UNL1       -0.1683
     30 C          61.4255   88.5773   10.9034 C.ar    1  UNL1        0.0854
     31 C          62.5927   89.5192   10.8823 C.ar    1  UNL1        0.0193
     32 C          62.3868   90.9752   11.1788 C.ar    1  UNL1        0.0028
     33 C          61.0139   91.4891   11.4964 C.ar    1  UNL1        0.0142
     34 C          59.8467   90.5471   11.5175 C.ar    1  UNL1        0.0430
     35 N          58.4738   91.0611   11.8350 N.pl3   1  UNL1       -0.3570
     36 C          60.0526   89.0912   11.2209 C.ar    1  UNL1        0.0333
     37 H          58.3387   92.0166   12.0296 H       1  UNL1        0.1424
     38 H          57.7078   90.4428   11.8489 H       1  UNL1        0.1424
     39 C          62.7540   83.6817   12.4073 C.3     1  UNL1        0.0060
     40 C          63.3137   83.6475   11.0161 C.3     1  UNL1        0.0372
     41 C          63.8734   83.6133    9.6248 C.3     1  UNL1        0.0060
     42 C          64.1281   82.4396   11.3734 C.3     1  UNL1        0.0060
@<TRIPOS>BOND
     1    39    40    1
     2    40    41    1
     3    40    42    1
     4    40    25    1
     5    25    26   ar
     6    26    27   ar
     7    27     1    1
     8     1     2   am
     9     2     3    2
    10     2     4   am
    11     4     7    1
    12     7     8   ar
    13     8     9   ar
    14     9    10   ar
    15    10    13    1
    16    13    15    1
    17    15    16   ar
    18    16    17   ar
    19    17    18   ar
    20    18    19   ar
    21    19    20   ar
    22    20    21   ar
    23    21    22   ar
    24    22    23   ar
    25    23    24   ar
    26    10    11   ar
    27    11    12   ar
    28    27    28   ar
    29    28    30    1
    30    30    31   ar
    31    31    32   ar
    32    32    33   ar
    33    33    34   ar
    34    34    35    1
    35    34    36   ar
    36    28    29   ar
    37    29    25   ar
    38    12     7   ar
    39    36    30   ar
    40    24    15   ar
    41    24    19   ar
    42     1     5    1
    43     4     6    1
    44    13    14    1
    45    35    37    1
    46    35    38    1
@<TRIPOS>MOLECULE
*****
 42 46 0 0 0
SMALL
GASTEIGER

@<TRIPOS>ATOM
      1 N          59.7215   86.7852    8.8132 N.am    1  UNL1       -0.2533
      2 C          59.9237   87.9731    7.9198 C.2     1  UNL1        0.3092
      3 O          61.2535   88.6659    7.8828 O.2     1  UNL1       -0.2521
      4 N          58.7960   88.4680    7.0636 N.am    1  UNL1       -0.2680
      5 H          58.8487   86.3304    8.8376 H       1  UNL1        0.1578
      6 H          57.9231   88.0133    7.0879 H       1  UNL1        0.1564
      7 C          58.9981   89.6559    6.1702 C.ar    1  UNL1        0.0517
      8 C          60.3773   90.0186    5.7052 C.ar    1  UNL1        0.0160
      9 C          60.5794   91.2064    4.8118 C.ar    1  UNL1        0.0159
     10 C          59.4022   92.0316    4.3834 C.ar    1  UNL1        0.0494
     11 C          58.0230   91.6689    4.8484 C.ar    1  UNL1        0.0159
     12 C          57.8210   90.4810    5.7419 C.ar    1  UNL1        0.0160
     13 N          59.6043   93.2195    3.4901 N.pl3   1  UNL1       -0.2979
     14 H          59.0737   94.0368    3.6303 H       1  UNL1        0.1536
     15 C          60.6149   93.1620    2.3830 C.ar    1  UNL1        0.1353
     16 N          62.0766   93.0671    2.7060 N.ar    1  UNL1       -0.2089
     17 C          63.0871   93.0096    1.5990 C.ar    1  UNL1        0.2000
     18 N          62.6360   93.0472    0.1690 N.ar    1  UNL1       -0.2239
     19 C          61.1742   93.1422   -0.1541 C.ar    1  UNL1        0.0857
     20 C          60.7230   93.1798   -1.5841 C.ar    1  UNL1        0.0192
     21 C          59.2613   93.2747   -1.9071 C.ar    1  UNL1        0.0015
     22 C          58.2508   93.3322   -0.8000 C.ar    1  UNL1        0.0002
     23 C          58.7019   93.2946    0.6300 C.ar    1  UNL1        0.0043
     24 C          60.1636   93.1996    0.9530 C.ar    1  UNL1        0.0494
     25 C          62.5034   84.8416   10.6972 C.ar    1  UNL1        0.0810
     26 C          61.3806   84.8878    9.7036 C.ar    1  UNL1        0.0509
     27 C          60.8493   86.2902    9.6695 C.ar    1  UNL1        0.1380
     28 N          61.6437   87.1106   10.6421 N.ar    1  UNL1       -0.2162
     29 N          62.6660   86.2153   11.2772 N.ar    1  UNL1       -0.1683
     30 C          61.4498   88.5701   10.9291 C.ar    1  UNL1        0.0854
     31 C          62.6254   89.5015   10.9061 C.ar    1  UNL1        0.0193
     32 C          62.4316   90.9610   11.1931 C.ar    1  UNL1        0.0028
     33 C          61.0622   91.4889   11.5031 C.ar    1  UNL1        0.0142
     34 C          59.8867   90.5575   11.5262 C.ar    1  UNL1        0.0430
     35 N          58.5174   91.0855   11.8362 N.pl3   1  UNL1       -0.3570
     36 C          60.0806   89.0981   11.2391 C.ar    1  UNL1        0.0333
     37 H          58.3901   92.0434   12.0246 H       1  UNL1        0.1424
     38 H          57.7458   90.4741   11.8513 H       1  UNL1        0.1424
     39 C          63.8864   83.6120    9.6602 C.3     1  UNL1        0.0060
     40 C          63.3202   83.6337   11.0490 C.3     1  UNL1        0.0372
     41 C          62.7540   83.6553   12.4379 C.3     1  UNL1        0.0060
     42 C          64.1370   82.4258   11.4008 C.3     1  UNL1        0.0060
@<TRIPOS>BOND
     1    39    40    1
     2    40    41    1
     3    40    42    1
     4    40    25    1
     5    25    26   ar
     6    26    27   ar
     7    27     1    1
     8     1     2   am
     9     2     3    2
    10     2     4   am
    11     4     7    1
    12     7     8   ar
    13     8     9   ar
    14     9    10   ar
    15    10    13    1
    16    13    15    1
    17    15    16   ar
    18    16    17   ar
    19    17    18   ar
    20    18    19   ar
    21    19    20   ar
    22    20    21   ar
    23    21    22   ar
    24    22    23   ar
    25    23    24   ar
    26    10    11   ar
    27    11    12   ar
    28    27    28   ar
    29    28    30    1
    30    30    31   ar
    31    31    32   ar
    32    32    33   ar
    33    33    34   ar
    34    34    35    1
    35    34    36   ar
    36    28    29   ar
    37    29    25   ar
    38    12     7   ar
    39    36    30   ar
    40    24    15   ar
    41    24    19   ar
    42     1     5    1
    43     4     6    1
    44    13    14    1
    45    35    37    1
    46    35    38    1
@<TRIPOS>MOLECULE
*****
 42 46 0 0 0
SMALL
GASTEIGER

@<TRIPOS>ATOM
      1 N          61.7758   86.5006   12.1001 N.am    1  UNL1       -0.2533
      2 C          62.7067   87.6656   12.2624 C.2     1  UNL1        0.3092
      3 O          64.1112   87.4425   12.7395 O.2     1  UNL1       -0.2521
      4 N          62.2330   89.0536   11.9477 N.am    1  UNL1       -0.2680
      5 H          60.8539   86.6470   11.7870 H       1  UNL1        0.1578
      6 H          61.3112   89.2000   11.6345 H       1  UNL1        0.1564
      7 C          63.1639   90.2186   12.1099 C.ar    1  UNL1        0.0517
      8 C          63.7860   90.5012   13.4453 C.ar    1  UNL1        0.0160
      9 C          64.7168   91.6661   13.6075 C.ar    1  UNL1        0.0159
     10 C          65.0256   92.5486   12.4345 C.ar    1  UNL1        0.0494
     11 C          64.4035   92.2659   11.0991 C.ar    1  UNL1        0.0159
     12 C          63.4726   91.1009   10.9369 C.ar    1  UNL1        0.0160
     13 N          65.9564   93.7135   12.5967 N.pl3   1  UNL1       -0.2979
     14 H          66.2824   93.9621   13.4918 H       1  UNL1        0.1536
     15 C          66.3906   94.4997   11.3953 C.ar    1  UNL1        0.1353
     16 N          66.0095   95.9447   11.2668 N.ar    1  UNL1       -0.2089
     17 C          66.4437   96.7309   10.0654 C.ar    1  UNL1        0.2000
     18 N          67.2589   96.0720    8.9924 N.ar    1  UNL1       -0.2239
     19 C          67.6399   94.6269    9.1209 C.ar    1  UNL1        0.0857
     20 C          68.4551   93.9680    8.0479 C.ar    1  UNL1        0.0192
     21 C          68.8362   92.5229    8.1764 C.ar    1  UNL1        0.0015
     22 C          68.4020   91.7367    9.3778 C.ar    1  UNL1        0.0002
     23 C          67.5868   92.3956   10.4508 C.ar    1  UNL1        0.0043
     24 C          67.2058   93.8407   10.3223 C.ar    1  UNL1        0.0494
     25 C          62.8671   82.7767   12.1851 C.ar    1  UNL1        0.0810
     26 C          62.3480   83.9732   11.4442 C.ar    1  UNL1        0.0509
     27 C          62.2494   85.1126   12.4149 C.ar    1  UNL1        0.1380
     28 N          62.7077   84.6202   13.7556 N.ar    1  UNL1       -0.2162
     29 N          63.0895   83.1766   13.6136 N.ar    1  UNL1       -0.1683
     30 C          62.7728   85.4294   15.0170 C.ar    1  UNL1        0.0854
     31 C          62.3631   84.8162   16.3233 C.ar    1  UNL1        0.0193
     32 C          62.4282   85.6254   17.5847 C.ar    1  UNL1        0.0028
     33 C          62.9029   87.0476   17.5397 C.ar    1  UNL1        0.0142
     34 C          63.3125   87.6607   16.2335 C.ar    1  UNL1        0.0430
     35 N          63.7872   89.0829   16.1886 N.pl3   1  UNL1       -0.3570
     36 C          63.2474   86.8515   14.9721 C.ar    1  UNL1        0.0333
     37 H          63.8299   89.6140   17.0164 H       1  UNL1        0.1424
     38 H          64.0560   89.4852   15.3312 H       1  UNL1        0.1424
     39 C          63.6968   82.0557   10.3707 C.3     1  UNL1        0.0060
     40 C          63.1196   81.4188   11.6001 C.3     1  UNL1        0.0372
     41 C          62.5425   80.7819   12.8294 C.3     1  UNL1        0.0060
     42 C          63.3721   80.0609   11.0150 C.3     1  UNL1        0.0060
@<TRIPOS>BOND
     1    39    40    1
     2    40    41    1
     3    40    42    1
     4    40    25    1
     5    25    26   ar
     6    26    27   ar
     7    27     1    1
     8     1     2   am
     9     2     3    2
    10     2     4   am
    11     4     7    1
    12     7     8   ar
    13     8     9   ar
    14     9    10   ar
    15    10    13    1
    16    13    15    1
    17    15    16   ar
    18    16    17   ar
    19    17    18   ar
    20    18    19   ar
    21    19    20   ar
    22    20    21   ar
    23    21    22   ar
    24    22    23   ar
    25    23    24   ar
    26    10    11   ar
    27    11    12   ar
    28    27    28   ar
    29    28    30    1
    30    30    31   ar
    31    31    32   ar
    32    32    33   ar
    33    33    34   ar
    34    34    35    1
    35    34    36   ar
    36    28    29   ar
    37    29    25   ar
    38    12     7   ar
    39    36    30   ar
    40    24    15   ar
    41    24    19   ar
    42     1     5    1
    43     4     6    1
    44    13    14    1
    45    35    37    1
    46    35    38    1
