@<TRIPOS>MOLECULE
*****
 54 59 0 0 0
SMALL
GASTEIGER

@<TRIPOS>ATOM
      1 N          62.7825   85.1906    8.9420 N.am    1  UNL1       -0.2770
      2 C          61.9839   86.2656    9.6178 C.2     1  UNL1        0.2270
      3 O          62.3049   86.6642   11.0278 O.2     1  UNL1       -0.2748
      4 C          60.8643   86.9420    8.8836 C.3     1  UNL1        0.0964
      5 C          60.0165   86.1605    7.9242 C.3     1  UNL1        0.0780
      6 N          58.8969   86.8369    7.1900 N.3     1  UNL1       -0.2970
      7 C          58.6252   88.2947    7.4152 C.3     1  UNL1        0.0689
      8 C          59.4730   89.0762    8.3746 C.3     1  UNL1        0.0220
      9 C          60.5925   88.3999    9.1088 C.3     1  UNL1        0.0337
     10 H          58.0415   86.3370    7.4323 H       1  UNL1        0.1233
     11 C          61.4403   89.1814   10.0682 C.ar    1  UNL1       -0.0217
     12 C          61.0004   89.3499   11.4923 C.ar    1  UNL1       -0.0012
     13 C          61.8482   90.1314   12.4517 C.ar    1  UNL1        0.0366
     14 C          63.1359   90.7444   11.9870 C.ar    1  UNL1        0.1387
     15 C          63.5759   90.5760   10.5629 C.ar    1  UNL1        0.0366
     16 C          62.7281   89.7945    9.6035 C.ar    1  UNL1       -0.0012
     17 O          63.9838   91.5259   12.9465 O.3     1  UNL1       -0.4714
     18 C          65.3429   92.0036   12.5289 C.3     1  UNL1        0.2525
     19 C          65.7976   93.3853   12.8953 C.3     1  UNL1        0.2525
     20 O          67.0022   93.9800   12.2282 O.3     1  UNL1       -0.4697
     21 C          66.8567   94.6987   10.9197 C.ar    1  UNL1        0.1596
     22 C          66.4295   96.1365   10.8971 C.ar    1  UNL1        0.0921
     23 CL         66.1480   96.8555   12.1830 Cl      1  UNL1       -0.0791
     24 C          66.2840   96.8551    9.5885 C.ar    1  UNL1        0.0103
     25 C          66.5655   96.1360    8.3025 C.ar    1  UNL1       -0.0200
     26 C          66.4200   96.8546    6.9940 C.3     1  UNL1        0.0311
     27 C          66.9926   94.6983    8.3252 C.ar    1  UNL1        0.0103
     28 C          67.1382   93.9796    9.6337 C.ar    1  UNL1        0.0921
     29 CL         67.5653   92.5419    9.6564 Cl      1  UNL1       -0.0791
     30 C          62.4616   84.7920    7.5320 C.3     1  UNL1        0.0758
     31 C          62.8477   84.7120    6.0848 C.3     1  UNL1        0.0215
     32 C          61.5195   84.1817    6.5371 C.3     1  UNL1        0.0215
     33 C          63.9021   84.5143    9.6762 C.3     1  UNL1        0.1201
     34 C          63.6833   83.8891   13.5892 C.ar    1  UNL1        0.1380
     35 C          63.1127   82.5023   13.6233 C.ar    1  UNL1        0.0326
     36 C          62.8053   81.7862   12.3417 C.ar    1  UNL1       -0.0194
     37 C          63.0684   82.4568   11.0260 C.ar    1  UNL1       -0.0067
     38 C          63.6390   83.8436   10.9919 C.ar    1  UNL1        0.0004
     39 C          63.9464   84.5598   12.2735 C.ar    1  UNL1        0.0343
     40 C          62.2347   80.3993   12.3757 C.3     1  UNL1        0.0290
     41 C          61.4708   79.9319   13.5791 C.3     1  UNL1        0.0367
     42 C          60.3984   80.7985   14.1698 C.3     1  UNL1        0.1426
     43 O          59.0895   80.1943   14.5843 O.3     1  UNL1       -0.3511
     44 C          58.8802   78.7127   14.4780 C.3     1  UNL1        0.1741
     45 O          63.9908   84.6054   14.8709 O.3     1  UNL1       -0.4755
     46 C          64.9992   85.7157   14.8862 C.3     1  UNL1        0.2058
     47 C          63.9254   88.3268   15.5394 C.3     1  UNL1        0.1028
     48 C          64.3686   88.4356   14.1106 C.3     1  UNL1        0.0155
     49 C          64.5425   87.1441   14.8534 C.3     1  UNL1        0.0548
     50 C          63.3133   88.9467   16.7605 C.2     1  UNL1        0.3165
     51 O          63.0882   90.4286   16.8165 O.2     1  UNL1       -0.2501
     52 O          62.9262   88.0847   17.9254 O.3     1  UNL1       -0.4485
     53 C          61.6799   86.0281   16.9420 C.3     1  UNL1        0.0513
     54 C          62.8055   86.5997   17.7522 C.3     1  UNL1        0.2086
@<TRIPOS>BOND
     1    53    54    1
     2    54    52    1
     3    52    50    1
     4    50    51    2
     5    47    50    1
     6    47    48    1
     7    48    49    1
     8    49    46    1
     9    46    45    1
    10    45    34    1
    11    34    35   ar
    12    35    36   ar
    13    36    40    1
    14    40    41    1
    15    41    42    1
    16    42    43    1
    17    43    44    1
    18    36    37   ar
    19    37    38   ar
    20    38    33    1
    21    33     1    1
    22     1     2   am
    23     2     3    2
    24     4     2    1
    25     4     5    1
    26     5     6    1
    27     6     7    1
    28     7     8    1
    29     8     9    1
    30     9    11    1
    31    11    12   ar
    32    12    13   ar
    33    13    14   ar
    34    14    17    1
    35    17    18    1
    36    18    19    1
    37    19    20    1
    38    20    21    1
    39    21    22   ar
    40    22    23    1
    41    22    24   ar
    42    24    25   ar
    43    25    26    1
    44    25    27   ar
    45    27    28   ar
    46    28    29    1
    47    14    15   ar
    48    15    16   ar
    49     1    30    1
    50    30    31    1
    51    31    32    1
    52    38    39   ar
    53    49    47    1
    54    39    34   ar
    55     9     4    1
    56    16    11   ar
    57    32    30    1
    58    28    21   ar
    59     6    10    1
@<TRIPOS>MOLECULE
*****
 54 59 0 0 0
SMALL
GASTEIGER

@<TRIPOS>ATOM
      1 N          62.6199   85.3016    9.2851 N.am    1  UNL1       -0.2770
      2 C          61.6967   86.3200    9.8857 C.2     1  UNL1        0.2270
      3 O          61.8130   86.6730   11.3390 O.2     1  UNL1       -0.2748
      4 C          60.6572   86.9852    9.0332 C.3     1  UNL1        0.0964
      5 C          59.7933   86.1619    8.1244 C.3     1  UNL1        0.0780
      6 N          58.7538   86.8272    7.2718 N.3     1  UNL1       -0.2970
      7 C          58.5782   88.3158    7.3281 C.3     1  UNL1        0.0689
      8 C          59.4420   89.1391    8.2368 C.3     1  UNL1        0.0220
      9 C          60.4815   88.4739    9.0894 C.3     1  UNL1        0.0337
     10 H          57.8563   86.4150    7.5265 H       1  UNL1        0.1233
     11 C          61.3454   89.2972    9.9982 C.ar    1  UNL1       -0.0217
     12 C          61.0904   89.2996   11.4763 C.ar    1  UNL1       -0.0012
     13 C          61.9542   90.1229   12.3851 C.ar    1  UNL1        0.0366
     14 C          63.0730   90.9439   11.8157 C.ar    1  UNL1        0.1387
     15 C          63.3281   90.9416   10.3375 C.ar    1  UNL1        0.0366
     16 C          62.4642   90.1182    9.4287 C.ar    1  UNL1       -0.0012
     17 O          63.9369   91.7672   12.7245 O.3     1  UNL1       -0.4714
     18 C          65.3196   92.1581   12.2941 C.3     1  UNL1        0.2525
     19 C          66.0586   93.2347   13.0320 C.3     1  UNL1        0.2525
     20 O          67.1657   93.9851   12.3529 O.3     1  UNL1       -0.4697
     21 C          66.9214   94.6467   11.0291 C.ar    1  UNL1        0.1596
     22 C          66.3327   96.0254   10.9769 C.ar    1  UNL1        0.0921
     23 CL         65.9884   96.7425   12.2486 Cl      1  UNL1       -0.0791
     24 C          66.0884   96.6870    9.6530 C.ar    1  UNL1        0.0103
     25 C          66.4328   95.9699    8.3813 C.ar    1  UNL1       -0.0200
     26 C          66.1885   96.6314    7.0574 C.3     1  UNL1        0.0311
     27 C          67.0215   94.5912    8.4335 C.ar    1  UNL1        0.0103
     28 C          67.2658   93.9296    9.7574 C.ar    1  UNL1        0.0921
     29 CL         67.8544   92.5510    9.8096 Cl      1  UNL1       -0.0791
     30 C          62.5036   84.9486    7.8318 C.3     1  UNL1        0.0758
     31 C          63.0931   84.9106    6.4531 C.3     1  UNL1        0.0215
     32 C          61.7127   84.3753    6.6936 C.3     1  UNL1        0.0215
     33 C          63.6594   84.6364   10.1376 C.3     1  UNL1        0.1201
     34 C          62.5389   82.8400   13.4943 C.ar    1  UNL1        0.1380
     35 C          62.4625   81.4125   13.0400 C.ar    1  UNL1        0.0326
     36 C          62.7851   81.0597   11.6183 C.ar    1  UNL1       -0.0194
     37 C          63.1840   82.1343   10.6508 C.ar    1  UNL1       -0.0067
     38 C          63.2604   83.5618   11.1051 C.ar    1  UNL1        0.0004
     39 C          62.9378   83.9146   12.5268 C.ar    1  UNL1        0.0343
     40 C          62.7087   79.6321   11.1640 C.3     1  UNL1        0.0290
     41 C          62.7286   79.3091    9.6993 C.3     1  UNL1        0.0367
     42 C          63.8143   78.4398    9.1377 C.3     1  UNL1        0.1426
     43 O          64.0579   77.0769    9.7149 O.3     1  UNL1       -0.3511
     44 C          65.0203   76.1403    9.0465 C.3     1  UNL1        0.1741
     45 O          62.2163   83.1929   14.9161 O.3     1  UNL1       -0.4755
     46 C          63.2952   83.7005   15.8262 C.3     1  UNL1        0.2058
     47 C          63.5707   86.5528   16.2573 C.3     1  UNL1        0.1028
     48 C          64.5625   86.2253   15.1807 C.3     1  UNL1        0.0155
     49 C          63.7086   85.1413   15.7688 C.3     1  UNL1        0.0548
     50 C          62.9185   87.5567   17.1610 C.2     1  UNL1        0.3165
     51 O          62.7237   87.2423   18.6146 O.2     1  UNL1       -0.2501
     52 O          62.4611   88.8752   16.6110 O.3     1  UNL1       -0.4485
     53 C          64.3182   89.8088   15.0522 C.3     1  UNL1        0.0513
     54 C          63.4657   89.9387   16.2795 C.3     1  UNL1        0.2086
@<TRIPOS>BOND
     1    53    54    1
     2    54    52    1
     3    52    50    1
     4    50    51    2
     5    47    50    1
     6    47    48    1
     7    48    49    1
     8    49    46    1
     9    46    45    1
    10    45    34    1
    11    34    35   ar
    12    35    36   ar
    13    36    40    1
    14    40    41    1
    15    41    42    1
    16    42    43    1
    17    43    44    1
    18    36    37   ar
    19    37    38   ar
    20    38    33    1
    21    33     1    1
    22     1     2   am
    23     2     3    2
    24     4     2    1
    25     4     5    1
    26     5     6    1
    27     6     7    1
    28     7     8    1
    29     8     9    1
    30     9    11    1
    31    11    12   ar
    32    12    13   ar
    33    13    14   ar
    34    14    17    1
    35    17    18    1
    36    18    19    1
    37    19    20    1
    38    20    21    1
    39    21    22   ar
    40    22    23    1
    41    22    24   ar
    42    24    25   ar
    43    25    26    1
    44    25    27   ar
    45    27    28   ar
    46    28    29    1
    47    14    15   ar
    48    15    16   ar
    49     1    30    1
    50    30    31    1
    51    31    32    1
    52    38    39   ar
    53    49    47    1
    54    39    34   ar
    55     9     4    1
    56    16    11   ar
    57    32    30    1
    58    28    21   ar
    59     6    10    1
@<TRIPOS>MOLECULE
*****
 54 59 0 0 0
SMALL
GASTEIGER

@<TRIPOS>ATOM
      1 N          62.6347   85.2791    9.5994 N.am    1  UNL1       -0.2770
      2 C          61.6028   86.2192   10.1486 C.2     1  UNL1        0.2270
      3 O          61.5579   86.5069   11.6201 O.2     1  UNL1       -0.2748
      4 C          60.6160   86.8715    9.2264 C.3     1  UNL1        0.0964
      5 C          59.7625   86.0300    8.3245 C.3     1  UNL1        0.0780
      6 N          58.7756   86.6824    7.4023 N.3     1  UNL1       -0.2970
      7 C          58.6423   88.1763    7.3819 C.3     1  UNL1        0.0689
      8 C          59.4958   89.0178    8.2837 C.3     1  UNL1        0.0220
      9 C          60.4826   88.3655    9.2059 C.3     1  UNL1        0.0337
     10 H          57.8574   86.3080    7.6411 H       1  UNL1        0.1233
     11 C          61.3361   89.2070   10.1078 C.ar    1  UNL1       -0.0217
     12 C          61.0048   89.3166   11.5666 C.ar    1  UNL1       -0.0012
     13 C          61.8583   90.1581   12.4684 C.ar    1  UNL1        0.0366
     14 C          63.0432   90.8901   11.9115 C.ar    1  UNL1        0.1387
     15 C          63.3745   90.7806   10.4526 C.ar    1  UNL1        0.0366
     16 C          62.5210   89.9391    9.5507 C.ar    1  UNL1       -0.0012
     17 O          63.8967   91.7317   12.8133 O.3     1  UNL1       -0.4714
     18 C          65.3691   91.8527   12.5543 C.3     1  UNL1        0.2525
     19 C          66.0697   93.1557   12.8021 C.3     1  UNL1        0.2525
     20 O          67.2341   93.5559   11.9455 O.3     1  UNL1       -0.4697
     21 C          67.0100   94.3809   10.7129 C.ar    1  UNL1        0.1596
     22 C          67.4147   93.8484    9.3702 C.ar    1  UNL1        0.0921
     23 CL         68.0433   92.4910    9.2601 Cl      1  UNL1       -0.0791
     24 C          67.1906   94.6734    8.1377 C.ar    1  UNL1        0.0103
     25 C          66.5619   96.0309    8.2479 C.ar    1  UNL1       -0.0200
     26 C          66.3378   96.8559    7.0153 C.3     1  UNL1        0.0311
     27 C          66.1573   96.5633    9.5905 C.ar    1  UNL1        0.0103
     28 C          66.3814   95.7383   10.8231 C.ar    1  UNL1        0.0921
     29 CL         65.9768   96.2707   12.1657 Cl      1  UNL1       -0.0791
     30 C          62.6796   84.9914    8.1279 C.3     1  UNL1        0.0758
     31 C          61.9712   84.6803    6.8429 C.3     1  UNL1        0.0215
     32 C          63.4659   84.8041    6.8644 C.3     1  UNL1        0.0215
     33 C          63.6215   84.6267   10.5216 C.3     1  UNL1        0.1201
     34 C          62.8601   84.3975   14.4098 C.ar    1  UNL1        0.1380
     35 C          62.2632   83.0244   14.5013 C.ar    1  UNL1        0.0326
     36 C          62.1191   82.1855   13.2663 C.ar    1  UNL1       -0.0194
     37 C          62.5719   82.7196   11.9397 C.ar    1  UNL1       -0.0067
     38 C          63.1688   84.0926   11.8482 C.ar    1  UNL1        0.0004
     39 C          63.3129   84.9316   13.0832 C.ar    1  UNL1        0.0343
     40 C          61.5222   80.8124   13.3577 C.3     1  UNL1        0.0290
     41 C          62.4119   79.6049   13.3372 C.3     1  UNL1        0.0367
     42 C          62.7138   78.9178   12.0385 C.3     1  UNL1        0.1426
     43 O          62.4788   79.6312   10.7401 O.3     1  UNL1       -0.3511
     44 C          63.1796   79.1735    9.4953 C.3     1  UNL1        0.1741
     45 O          63.0043   85.2365   15.6448 O.3     1  UNL1       -0.4755
     46 C          64.2153   86.1028   15.8259 C.3     1  UNL1        0.2058
     47 C          63.7168   88.9225   15.3804 C.3     1  UNL1        0.1028
     48 C          64.7148   88.5340   14.3302 C.3     1  UNL1        0.0155
     49 C          64.2156   87.5098   15.3057 C.3     1  UNL1        0.0548
     50 C          62.8526   89.9623   16.0298 C.2     1  UNL1        0.3165
     51 O          61.4111   89.6654   16.3192 O.2     1  UNL1       -0.2501
     52 O          63.4299   91.2992   16.3899 O.3     1  UNL1       -0.4485
     53 C          65.5429   92.7853   16.6663 C.3     1  UNL1        0.0513
     54 C          64.8417   91.6335   16.0093 C.3     1  UNL1        0.2086
@<TRIPOS>BOND
     1    53    54    1
     2    54    52    1
     3    52    50    1
     4    50    51    2
     5    47    50    1
     6    47    48    1
     7    48    49    1
     8    49    46    1
     9    46    45    1
    10    45    34    1
    11    34    35   ar
    12    35    36   ar
    13    36    40    1
    14    40    41    1
    15    41    42    1
    16    42    43    1
    17    43    44    1
    18    36    37   ar
    19    37    38   ar
    20    38    33    1
    21    33     1    1
    22     1     2   am
    23     2     3    2
    24     4     2    1
    25     4     5    1
    26     5     6    1
    27     6     7    1
    28     7     8    1
    29     8     9    1
    30     9    11    1
    31    11    12   ar
    32    12    13   ar
    33    13    14   ar
    34    14    17    1
    35    17    18    1
    36    18    19    1
    37    19    20    1
    38    20    21    1
    39    21    22   ar
    40    22    23    1
    41    22    24   ar
    42    24    25   ar
    43    25    26    1
    44    25    27   ar
    45    27    28   ar
    46    28    29    1
    47    14    15   ar
    48    15    16   ar
    49     1    30    1
    50    30    31    1
    51    31    32    1
    52    38    39   ar
    53    49    47    1
    54    39    34   ar
    55     9     4    1
    56    16    11   ar
    57    32    30    1
    58    28    21   ar
    59     6    10    1
@<TRIPOS>MOLECULE
*****
 54 59 0 0 0
SMALL
GASTEIGER

@<TRIPOS>ATOM
      1 N          64.2107   85.4765   14.7014 N.am    1  UNL1       -0.2770
      2 C          64.6278   84.4843   13.6565 C.2     1  UNL1        0.2270
      3 O          65.8042   84.7758   12.7727 O.2     1  UNL1       -0.2748
      4 C          63.8686   83.2008   13.4955 C.3     1  UNL1        0.0964
      5 C          64.1754   82.0314   14.3834 C.3     1  UNL1        0.0780
      6 N          63.4161   80.7478   14.2224 N.3     1  UNL1       -0.2970
      7 C          62.3500   80.6336   13.1734 C.3     1  UNL1        0.0689
      8 C          62.0431   81.8030   12.2855 C.3     1  UNL1        0.0220
      9 C          62.8024   83.0866   12.4465 C.3     1  UNL1        0.0337
     10 H          62.9689   80.5557   15.1188 H       1  UNL1        0.1233
     11 C          62.4955   84.2559   11.5586 C.ar    1  UNL1       -0.0217
     12 C          63.0475   84.3044   10.1647 C.ar    1  UNL1       -0.0012
     13 C          62.7406   85.4738    9.2768 C.ar    1  UNL1        0.0366
     14 C          61.8818   86.5947    9.7828 C.ar    1  UNL1        0.1387
     15 C          61.3298   86.5462   11.1767 C.ar    1  UNL1        0.0366
     16 C          61.6367   85.3769   12.0646 C.ar    1  UNL1       -0.0012
     17 O          61.5750   87.7641    8.8949 O.3     1  UNL1       -0.4714
     18 C          60.2158   87.8986    8.2747 C.3     1  UNL1        0.2525
     19 C          59.7429   89.2360    7.7871 C.3     1  UNL1        0.2525
     20 O          58.8704   89.3250    6.5703 O.3     1  UNL1       -0.4697
     21 C          59.0895   90.4200    5.5687 C.ar    1  UNL1        0.1596
     22 C          57.9149   91.1429    4.9789 C.ar    1  UNL1        0.0921
     23 CL         56.5214   90.7708    5.3905 Cl      1  UNL1       -0.0791
     24 C          58.1340   92.2378    3.9774 C.ar    1  UNL1        0.0103
     25 C          59.5276   92.6099    3.5657 C.ar    1  UNL1       -0.0200
     26 C          59.7467   93.7049    2.5642 C.3     1  UNL1        0.0311
     27 C          60.7021   91.8870    4.1556 C.ar    1  UNL1        0.0103
     28 C          60.4830   90.7921    5.1571 C.ar    1  UNL1        0.0921
     29 CL         61.6575   90.0692    5.7469 Cl      1  UNL1       -0.0791
     30 C          63.0343   85.1851   15.5852 C.3     1  UNL1        0.0758
     31 C          61.8376   84.3449   15.9200 C.3     1  UNL1        0.0215
     32 C          62.1933   85.5204   16.7811 C.3     1  UNL1        0.0215
     33 C          64.9699   86.7601   14.8624 C.3     1  UNL1        0.1201
     34 C          63.6044   90.4848   14.9679 C.ar    1  UNL1        0.1380
     35 C          63.1180   90.6485   13.5585 C.ar    1  UNL1        0.0326
     36 C          63.2490   89.5161   12.5837 C.ar    1  UNL1       -0.0194
     37 C          63.8663   88.2199   13.0183 C.ar    1  UNL1       -0.0067
     38 C          64.3526   88.0562   14.4278 C.ar    1  UNL1        0.0004
     39 C          64.2217   89.1887   15.4026 C.ar    1  UNL1        0.0343
     40 C          62.7626   89.6797   11.1741 C.3     1  UNL1        0.0290
     41 C          61.6797   90.6704   10.8647 C.3     1  UNL1        0.0367
     42 C          60.2535   90.3530   11.2040 C.3     1  UNL1        0.1426
     43 O          59.9268   89.6484   12.4873 O.3     1  UNL1       -0.3511
     44 C          58.6199   88.9272   12.6352 C.3     1  UNL1        0.1741
     45 O          63.4734   91.6174   15.9428 O.3     1  UNL1       -0.4755
     46 C          64.6766   92.1005   16.6971 C.3     1  UNL1        0.2058
     47 C          66.6778   92.6280   14.6688 C.3     1  UNL1        0.1028
     48 C          67.3906   92.8148   15.9753 C.3     1  UNL1        0.0155
     49 C          65.9400   92.4333   15.9602 C.3     1  UNL1        0.0548
     50 C          66.6922   92.6326   13.1689 C.2     1  UNL1        0.3165
     51 O          67.8930   92.1223   12.4288 O.2     1  UNL1       -0.2501
     52 O          65.5058   93.1474   12.4090 O.3     1  UNL1       -0.4485
     53 C          66.1438   95.0780   10.7917 C.3     1  UNL1        0.0513
     54 C          65.6779   93.6695   11.0134 C.3     1  UNL1        0.2086
@<TRIPOS>BOND
     1    53    54    1
     2    54    52    1
     3    52    50    1
     4    50    51    2
     5    47    50    1
     6    47    48    1
     7    48    49    1
     8    49    46    1
     9    46    45    1
    10    45    34    1
    11    34    35   ar
    12    35    36   ar
    13    36    40    1
    14    40    41    1
    15    41    42    1
    16    42    43    1
    17    43    44    1
    18    36    37   ar
    19    37    38   ar
    20    38    33    1
    21    33     1    1
    22     1     2   am
    23     2     3    2
    24     4     2    1
    25     4     5    1
    26     5     6    1
    27     6     7    1
    28     7     8    1
    29     8     9    1
    30     9    11    1
    31    11    12   ar
    32    12    13   ar
    33    13    14   ar
    34    14    17    1
    35    17    18    1
    36    18    19    1
    37    19    20    1
    38    20    21    1
    39    21    22   ar
    40    22    23    1
    41    22    24   ar
    42    24    25   ar
    43    25    26    1
    44    25    27   ar
    45    27    28   ar
    46    28    29    1
    47    14    15   ar
    48    15    16   ar
    49     1    30    1
    50    30    31    1
    51    31    32    1
    52    38    39   ar
    53    49    47    1
    54    39    34   ar
    55     9     4    1
    56    16    11   ar
    57    32    30    1
    58    28    21   ar
    59     6    10    1
@<TRIPOS>MOLECULE
*****
 54 59 0 0 0
SMALL
GASTEIGER

@<TRIPOS>ATOM
      1 N          62.6057   85.3723    9.3712 N.am    1  UNL1       -0.2770
      2 C          61.6334   86.3691    9.9290 C.2     1  UNL1        0.2270
      3 O          61.6548   86.6998   11.3920 O.2     1  UNL1       -0.2748
      4 C          60.6398   87.0351    9.0240 C.3     1  UNL1        0.0964
      5 C          59.8294   86.2134    8.0659 C.3     1  UNL1        0.0780
      6 N          58.8358   86.8795    7.1608 N.3     1  UNL1       -0.2970
      7 C          58.6527   88.3673    7.2139 C.3     1  UNL1        0.0689
      8 C          59.4631   89.1890    8.1719 C.3     1  UNL1        0.0220
      9 C          60.4567   88.5230    9.0770 C.3     1  UNL1        0.0337
     10 H          57.9270   86.4635    7.3644 H       1  UNL1        0.1233
     11 C          61.2671   89.3447   10.0351 C.ar    1  UNL1       -0.0217
     12 C          60.8700   89.4213   11.4795 C.ar    1  UNL1       -0.0012
     13 C          61.6805   90.2430   12.4376 C.ar    1  UNL1        0.0366
     14 C          62.8879   90.9883   11.9512 C.ar    1  UNL1        0.1387
     15 C          63.2850   90.9118   10.5067 C.ar    1  UNL1        0.0366
     16 C          62.4746   90.0900    9.5486 C.ar    1  UNL1       -0.0012
     17 O          63.6984   91.8100   12.9093 O.3     1  UNL1       -0.4714
     18 C          64.8332   91.1817   13.6625 C.3     1  UNL1        0.2525
     19 C          65.8318   92.0466   14.3731 C.3     1  UNL1        0.2525
     20 O          66.5075   93.1682   13.6415 O.3     1  UNL1       -0.4697
     21 C          67.0900   92.9320   12.2796 C.ar    1  UNL1        0.1596
     22 C          66.5118   93.6312   11.0850 C.ar    1  UNL1        0.0921
     23 CL         65.3512   94.5665   11.2524 Cl      1  UNL1       -0.0791
     24 C          67.0944   93.3950    9.7231 C.ar    1  UNL1        0.0103
     25 C          68.2551   92.4597    9.5557 C.ar    1  UNL1       -0.0200
     26 C          68.8376   92.2235    8.1938 C.3     1  UNL1        0.0311
     27 C          68.8332   91.7606   10.7503 C.ar    1  UNL1        0.0103
     28 C          68.2507   91.9968   12.1122 C.ar    1  UNL1        0.0921
     29 CL         68.8288   91.2977   13.3068 Cl      1  UNL1       -0.0791
     30 C          62.5843   85.0416    7.9082 C.3     1  UNL1        0.0758
     31 C          63.2919   84.9356    6.5899 C.3     1  UNL1        0.0215
     32 C          61.8396   84.5747    6.6927 C.3     1  UNL1        0.0215
     33 C          63.5992   84.7062   10.2762 C.3     1  UNL1        0.1201
     34 C          62.4930   82.0486   13.0081 C.ar    1  UNL1        0.1380
     35 C          62.5898   80.7756   12.2208 C.ar    1  UNL1        0.0326
     36 C          63.0232   80.8128   10.7852 C.ar    1  UNL1       -0.0194
     37 C          63.3596   82.1230   10.1371 C.ar    1  UNL1       -0.0067
     38 C          63.2628   83.3960   10.9244 C.ar    1  UNL1        0.0004
     39 C          62.8294   83.3588   12.3599 C.ar    1  UNL1        0.0343
     40 C          63.1201   79.5397    9.9978 C.3     1  UNL1        0.0290
     41 C          62.7541   78.2329   10.6368 C.3     1  UNL1        0.0367
     42 C          63.2476   76.9452   10.0467 C.3     1  UNL1        0.1426
     43 O          64.6794   76.8165    9.6185 O.3     1  UNL1       -0.3511
     44 C          65.0520   75.8597    8.5250 C.3     1  UNL1        0.1741
     45 O          62.0596   82.0115   14.4437 O.3     1  UNL1       -0.4755
     46 C          62.5262   83.0726   15.3957 C.3     1  UNL1        0.2058
     47 C          64.0909   85.4411   14.8134 C.3     1  UNL1        0.1028
     48 C          64.9709   84.2897   14.4264 C.3     1  UNL1        0.0155
     49 C          63.6005   84.0334   14.9799 C.3     1  UNL1        0.0548
     50 C          63.8660   86.9187   14.9406 C.2     1  UNL1        0.3165
     51 O          64.2069   87.8302   13.7992 O.2     1  UNL1       -0.2501
     52 O          63.3001   87.4847   16.2093 O.3     1  UNL1       -0.4485
     53 C          62.7546   86.8541   18.6699 C.3     1  UNL1        0.0513
     54 C          62.6296   86.5803   17.2004 C.3     1  UNL1        0.2086
@<TRIPOS>BOND
     1    53    54    1
     2    54    52    1
     3    52    50    1
     4    50    51    2
     5    47    50    1
     6    47    48    1
     7    48    49    1
     8    49    46    1
     9    46    45    1
    10    45    34    1
    11    34    35   ar
    12    35    36   ar
    13    36    40    1
    14    40    41    1
    15    41    42    1
    16    42    43    1
    17    43    44    1
    18    36    37   ar
    19    37    38   ar
    20    38    33    1
    21    33     1    1
    22     1     2   am
    23     2     3    2
    24     4     2    1
    25     4     5    1
    26     5     6    1
    27     6     7    1
    28     7     8    1
    29     8     9    1
    30     9    11    1
    31    11    12   ar
    32    12    13   ar
    33    13    14   ar
    34    14    17    1
    35    17    18    1
    36    18    19    1
    37    19    20    1
    38    20    21    1
    39    21    22   ar
    40    22    23    1
    41    22    24   ar
    42    24    25   ar
    43    25    26    1
    44    25    27   ar
    45    27    28   ar
    46    28    29    1
    47    14    15   ar
    48    15    16   ar
    49     1    30    1
    50    30    31    1
    51    31    32    1
    52    38    39   ar
    53    49    47    1
    54    39    34   ar
    55     9     4    1
    56    16    11   ar
    57    32    30    1
    58    28    21   ar
    59     6    10    1
@<TRIPOS>MOLECULE
*****
 54 59 0 0 0
SMALL
GASTEIGER

@<TRIPOS>ATOM
      1 N          62.9220   85.1858    8.6537 N.am    1  UNL1       -0.2770
      2 C          62.1097   86.1846    9.4236 C.2     1  UNL1        0.2270
      3 O          62.5319   86.5896   10.8048 O.2     1  UNL1       -0.2748
      4 C          60.8754   86.7784    8.8122 C.3     1  UNL1        0.0964
      5 C          59.9887   85.9358    7.9440 C.3     1  UNL1        0.0780
      6 N          58.7543   86.5297    7.3326 N.3     1  UNL1       -0.2970
      7 C          58.4066   87.9660    7.5896 C.3     1  UNL1        0.0689
      8 C          59.2933   88.8086    8.4578 C.3     1  UNL1        0.0220
      9 C          60.5277   88.2148    9.0692 C.3     1  UNL1        0.0337
     10 H          57.9656   85.9725    7.6613 H       1  UNL1        0.1233
     11 C          61.4144   89.0573    9.9374 C.ar    1  UNL1       -0.0217
     12 C          61.2469   89.0329   11.4278 C.ar    1  UNL1       -0.0012
     13 C          62.1336   89.8754   12.2961 C.ar    1  UNL1        0.0366
     14 C          63.1878   90.7424   11.6740 C.ar    1  UNL1        0.1387
     15 C          63.3552   90.7669   10.1835 C.ar    1  UNL1        0.0366
     16 C          62.4685   89.9243    9.3152 C.ar    1  UNL1       -0.0012
     17 O          64.0745   91.5850   12.5422 O.3     1  UNL1       -0.4714
     18 C          65.0823   92.5035   11.9173 C.3     1  UNL1        0.2525
     19 C          66.2527   92.9899   12.7196 C.3     1  UNL1        0.2525
     20 O          67.2918   93.8607   12.0779 O.3     1  UNL1       -0.4697
     21 C          66.9747   94.5966   10.8099 C.ar    1  UNL1        0.1596
     22 C          67.3025   93.9795    9.4826 C.ar    1  UNL1        0.0921
     23 CL         67.9474   92.6266    9.4232 Cl      1  UNL1       -0.0791
     24 C          66.9855   94.7155    8.2145 C.ar    1  UNL1        0.0103
     25 C          66.3405   96.0685    8.2739 C.ar    1  UNL1       -0.0200
     26 C          66.0234   96.8045    7.0059 C.3     1  UNL1        0.0311
     27 C          66.0128   96.6856    9.6012 C.ar    1  UNL1        0.0103
     28 C          66.3299   95.9496   10.8692 C.ar    1  UNL1        0.0921
     29 CL         66.0021   96.5666   12.1965 Cl      1  UNL1       -0.0791
     30 C          62.4998   84.7807    7.2725 C.3     1  UNL1        0.0758
     31 C          62.7120   84.8113    5.7879 C.3     1  UNL1        0.0215
     32 C          61.5563   84.0487    6.3648 C.3     1  UNL1        0.0215
     33 C          64.1563   84.5920    9.2650 C.3     1  UNL1        0.1201
     34 C          63.4384   81.4728   11.6113 C.ar    1  UNL1        0.1380
     35 C          63.8326   82.0271   12.9483 C.ar    1  UNL1        0.0326
     36 C          64.3346   83.4363   13.0574 C.ar    1  UNL1       -0.0194
     37 C          64.4425   84.2913   11.8297 C.ar    1  UNL1       -0.0067
     38 C          64.0484   83.7370   10.4927 C.ar    1  UNL1        0.0004
     39 C          63.5463   82.3278   10.3836 C.ar    1  UNL1        0.0343
     40 C          64.7288   83.9907   14.3944 C.3     1  UNL1        0.0290
     41 C          63.6881   84.5862   15.2957 C.3     1  UNL1        0.0367
     42 C          63.6985   86.0583   15.5833 C.3     1  UNL1        0.1426
     43 O          64.6888   86.9500   14.8946 O.3     1  UNL1       -0.3511
     44 C          64.3839   88.4070   14.7091 C.3     1  UNL1        0.1741
     45 O          62.9363   80.0635   11.5021 O.3     1  UNL1       -0.4755
     46 C          62.3148   79.3944   12.6920 C.3     1  UNL1        0.2058
     47 C          60.0381   80.2025   14.2924 C.3     1  UNL1        0.1028
     48 C          60.9562   81.3886   14.2968 C.3     1  UNL1        0.0155
     49 C          61.3407   80.1453   13.5509 C.3     1  UNL1        0.0548
     50 C          58.7559   79.5506   14.7180 C.2     1  UNL1        0.3165
     51 O          58.5353   78.0898   14.4591 O.2     1  UNL1       -0.2501
     52 O          57.6944   80.3597   15.4025 O.3     1  UNL1       -0.4485
     53 C          56.3988   80.7861   17.6138 C.3     1  UNL1        0.0513
     54 C          57.0354   79.8354   16.6438 C.3     1  UNL1        0.2086
@<TRIPOS>BOND
     1    53    54    1
     2    54    52    1
     3    52    50    1
     4    50    51    2
     5    47    50    1
     6    47    48    1
     7    48    49    1
     8    49    46    1
     9    46    45    1
    10    45    34    1
    11    34    35   ar
    12    35    36   ar
    13    36    40    1
    14    40    41    1
    15    41    42    1
    16    42    43    1
    17    43    44    1
    18    36    37   ar
    19    37    38   ar
    20    38    33    1
    21    33     1    1
    22     1     2   am
    23     2     3    2
    24     4     2    1
    25     4     5    1
    26     5     6    1
    27     6     7    1
    28     7     8    1
    29     8     9    1
    30     9    11    1
    31    11    12   ar
    32    12    13   ar
    33    13    14   ar
    34    14    17    1
    35    17    18    1
    36    18    19    1
    37    19    20    1
    38    20    21    1
    39    21    22   ar
    40    22    23    1
    41    22    24   ar
    42    24    25   ar
    43    25    26    1
    44    25    27   ar
    45    27    28   ar
    46    28    29    1
    47    14    15   ar
    48    15    16   ar
    49     1    30    1
    50    30    31    1
    51    31    32    1
    52    38    39   ar
    53    49    47    1
    54    39    34   ar
    55     9     4    1
    56    16    11   ar
    57    32    30    1
    58    28    21   ar
    59     6    10    1
@<TRIPOS>MOLECULE
*****
 54 59 0 0 0
SMALL
GASTEIGER

@<TRIPOS>ATOM
      1 N          63.5893   87.1743   14.7900 N.am    1  UNL1       -0.2770
      2 C          63.6735   86.7170   13.3638 C.2     1  UNL1        0.2270
      3 O          63.8962   87.7164   12.2676 O.2     1  UNL1       -0.2748
      4 C          63.5349   85.2604   13.0338 C.3     1  UNL1        0.0964
      5 C          64.2045   84.2296   13.8936 C.3     1  UNL1        0.0780
      6 N          64.0659   82.7729   13.5636 N.3     1  UNL1       -0.2970
      7 C          63.2578   82.3470   12.3738 C.3     1  UNL1        0.0689
      8 C          62.5883   83.3777   11.5140 C.3     1  UNL1        0.0220
      9 C          62.7269   84.8344   11.8440 C.3     1  UNL1        0.0337
     10 H          63.6480   82.3247   14.3790 H       1  UNL1        0.1233
     11 C          62.0573   85.8652   10.9842 C.ar    1  UNL1       -0.0217
     12 C          62.5558   86.1195    9.5925 C.ar    1  UNL1       -0.0012
     13 C          61.8863   87.1502    8.7327 C.ar    1  UNL1        0.0366
     14 C          60.7183   87.9267    9.2645 C.ar    1  UNL1        0.1387
     15 C          60.2198   87.6724   10.6563 C.ar    1  UNL1        0.0366
     16 C          60.8893   86.6416   11.5161 C.ar    1  UNL1       -0.0012
     17 O          60.0488   88.9574    8.4047 O.3     1  UNL1       -0.4714
     18 C          59.7070   88.6381    6.9796 C.3     1  UNL1        0.2525
     19 C          59.6000   89.7411    5.9686 C.3     1  UNL1        0.2525
     20 O          60.8316   90.4726    5.5236 O.3     1  UNL1       -0.4697
     21 C          60.7687   91.4003    4.3466 C.ar    1  UNL1        0.1596
     22 C          59.5152   92.1761    4.0693 C.ar    1  UNL1        0.0921
     23 CL         58.3246   92.0242    4.9690 Cl      1  UNL1       -0.0791
     24 C          59.4523   93.1039    2.8923 C.ar    1  UNL1        0.0103
     25 C          60.6429   93.2558    1.9926 C.ar    1  UNL1       -0.0200
     26 C          60.5800   94.1836    0.8156 C.3     1  UNL1        0.0311
     27 C          61.8963   92.4800    2.2699 C.ar    1  UNL1        0.0103
     28 C          61.9592   91.5523    3.4469 C.ar    1  UNL1        0.0921
     29 CL         63.2127   90.7765    3.7242 Cl      1  UNL1       -0.0791
     30 C          63.3666   86.1748   15.8861 C.3     1  UNL1        0.0758
     31 C          62.4333   85.4164   16.7826 C.3     1  UNL1        0.0215
     32 C          63.9142   85.2022   16.8881 C.3     1  UNL1        0.0215
     33 C          63.7278   88.6309   15.1199 C.3     1  UNL1        0.1201
     34 C          65.1681   91.5363   12.8320 C.ar    1  UNL1        0.1380
     35 C          64.0741   91.6639   11.8137 C.ar    1  UNL1        0.0326
     36 C          62.8648   90.7805   11.8974 C.ar    1  UNL1       -0.0194
     37 C          62.7494   89.7695   12.9995 C.ar    1  UNL1       -0.0067
     38 C          63.8433   89.6419   14.0178 C.ar    1  UNL1        0.0004
     39 C          65.0526   90.5253   13.9341 C.ar    1  UNL1        0.0343
     40 C          61.7708   90.9081   10.8791 C.3     1  UNL1        0.0290
     41 C          60.3966   91.3335   11.3039 C.3     1  UNL1        0.0367
     42 C          59.3467   90.3010   11.5897 C.3     1  UNL1        0.1426
     43 O          59.3182   89.6084   12.9199 O.3     1  UNL1       -0.3511
     44 C          58.1306   88.7784   13.3081 C.3     1  UNL1        0.1741
     45 O          66.3775   92.4197   12.7483 O.3     1  UNL1       -0.4755
     46 C          66.2626   93.8807   13.0679 C.3     1  UNL1        0.2058
     47 C          66.7100   95.3136   10.5891 C.3     1  UNL1        0.1028
     48 C          65.8575   96.2282   11.4178 C.3     1  UNL1        0.0155
     49 C          66.2739   94.8937   11.9615 C.3     1  UNL1        0.0548
     50 C          67.4538   95.0279    9.3183 C.2     1  UNL1        0.3165
     51 O          66.9722   95.6068    8.0211 O.2     1  UNL1       -0.2501
     52 O          68.6794   94.1634    9.3447 O.3     1  UNL1       -0.4485
     53 C          68.2933   91.7343   10.1818 C.3     1  UNL1        0.0513
     54 C          68.5672   92.6945    9.0624 C.3     1  UNL1        0.2086
@<TRIPOS>BOND
     1    53    54    1
     2    54    52    1
     3    52    50    1
     4    50    51    2
     5    47    50    1
     6    47    48    1
     7    48    49    1
     8    49    46    1
     9    46    45    1
    10    45    34    1
    11    34    35   ar
    12    35    36   ar
    13    36    40    1
    14    40    41    1
    15    41    42    1
    16    42    43    1
    17    43    44    1
    18    36    37   ar
    19    37    38   ar
    20    38    33    1
    21    33     1    1
    22     1     2   am
    23     2     3    2
    24     4     2    1
    25     4     5    1
    26     5     6    1
    27     6     7    1
    28     7     8    1
    29     8     9    1
    30     9    11    1
    31    11    12   ar
    32    12    13   ar
    33    13    14   ar
    34    14    17    1
    35    17    18    1
    36    18    19    1
    37    19    20    1
    38    20    21    1
    39    21    22   ar
    40    22    23    1
    41    22    24   ar
    42    24    25   ar
    43    25    26    1
    44    25    27   ar
    45    27    28   ar
    46    28    29    1
    47    14    15   ar
    48    15    16   ar
    49     1    30    1
    50    30    31    1
    51    31    32    1
    52    38    39   ar
    53    49    47    1
    54    39    34   ar
    55     9     4    1
    56    16    11   ar
    57    32    30    1
    58    28    21   ar
    59     6    10    1
@<TRIPOS>MOLECULE
*****
 54 59 0 0 0
SMALL
GASTEIGER

@<TRIPOS>ATOM
      1 N          61.5463   89.7237   10.3680 N.am    1  UNL1       -0.2770
      2 C          60.4836   89.6112    9.3153 C.2     1  UNL1        0.2270
      3 O          59.7489   90.8362    8.8575 O.2     1  UNL1       -0.2748
      4 C          60.1557   88.2739    8.7204 C.3     1  UNL1        0.0964
      5 C          60.2698   87.0332    9.5557 C.3     1  UNL1        0.0780
      6 N          59.9419   85.6958    8.9607 N.3     1  UNL1       -0.2970
      7 C          59.4998   85.5991    7.5307 C.3     1  UNL1        0.0689
      8 C          59.3856   86.8398    6.6954 C.3     1  UNL1        0.0220
      9 C          59.7136   88.1772    7.2903 C.3     1  UNL1        0.0337
     10 H          59.1938   85.2967    9.5278 H       1  UNL1        0.1233
     11 C          59.5994   89.4179    6.4550 C.ar    1  UNL1       -0.0217
     12 C          60.8206   90.0020    5.8089 C.ar    1  UNL1       -0.0012
     13 C          60.7064   91.2427    4.9737 C.ar    1  UNL1        0.0366
     14 C          59.3711   91.8993    4.7846 C.ar    1  UNL1        0.1387
     15 C          58.1499   91.3152    5.4307 C.ar    1  UNL1        0.0366
     16 C          58.2640   90.0745    6.2660 C.ar    1  UNL1       -0.0012
     17 O          59.2569   93.1400    3.9493 O.3     1  UNL1       -0.4714
     18 C          60.2246   93.3816    2.8290 C.3     1  UNL1        0.2525
     19 C          59.8824   92.9454    1.4352 C.3     1  UNL1        0.2525
     20 O          60.9272   92.3012    0.5731 O.3     1  UNL1       -0.4697
     21 C          61.9170   93.1510   -0.1673 C.ar    1  UNL1        0.1596
     22 C          61.5677   93.7066   -1.5161 C.ar    1  UNL1        0.0921
     23 CL         60.2286   93.4123   -2.1245 Cl      1  UNL1       -0.0791
     24 C          62.5574   94.5564   -2.2565 C.ar    1  UNL1        0.0103
     25 C          63.8966   94.8506   -1.6480 C.ar    1  UNL1       -0.0200
     26 C          64.8864   95.7004   -2.3884 C.3     1  UNL1        0.0311
     27 C          64.2459   94.2950   -0.2992 C.ar    1  UNL1        0.0103
     28 C          63.2561   93.4452    0.4411 C.ar    1  UNL1        0.0921
     29 CL         63.6054   92.8897    1.7899 Cl      1  UNL1       -0.0791
     30 C          62.2810   88.4987   10.8258 C.3     1  UNL1        0.0758
     31 C          62.9832   87.7337   11.9082 C.3     1  UNL1        0.0215
     32 C          62.8513   87.1419   10.5362 C.3     1  UNL1        0.0215
     33 C          61.8742   91.0610   10.9628 C.3     1  UNL1        0.1201
     34 C          64.4444   90.9087   13.9829 C.ar    1  UNL1        0.1380
     35 C          65.6355   91.5890   13.3761 C.ar    1  UNL1        0.0326
     36 C          65.5729   92.0933   11.9649 C.ar    1  UNL1       -0.0194
     37 C          64.3191   91.9173   11.1604 C.ar    1  UNL1       -0.0067
     38 C          63.1280   91.2370   11.7673 C.ar    1  UNL1        0.0004
     39 C          63.1906   90.7327   13.1785 C.ar    1  UNL1        0.0343
     40 C          66.7641   92.7737   11.3580 C.3     1  UNL1        0.0290
     41 C          67.5500   92.0890   10.2792 C.3     1  UNL1        0.0367
     42 C          68.3377   92.9013    9.2946 C.3     1  UNL1        0.1426
     43 O          68.4480   94.3874    9.4663 O.3     1  UNL1       -0.3511
     44 C          67.5404   95.3008    8.6969 C.3     1  UNL1        0.1741
     45 O          64.5069   90.4043   15.3943 O.3     1  UNL1       -0.4755
     46 C          63.2608   89.9180   16.0729 C.3     1  UNL1        0.2058
     47 C          63.4398   87.0470   16.4231 C.3     1  UNL1        0.1028
     48 C          62.8287   87.5559   17.6949 C.3     1  UNL1        0.0155
     49 C          63.1930   88.5157   16.6013 C.3     1  UNL1        0.0548
     50 C          63.9352   85.9052   15.5859 C.2     1  UNL1        0.3165
     51 O          65.2112   86.0428   14.8095 O.2     1  UNL1       -0.2501
     52 O          63.1545   84.6258   15.5251 O.3     1  UNL1       -0.4485
     53 C          63.0489   83.8273   13.0550 C.3     1  UNL1        0.0513
     54 C          63.4730   83.6020   14.4761 C.3     1  UNL1        0.2086
@<TRIPOS>BOND
     1    53    54    1
     2    54    52    1
     3    52    50    1
     4    50    51    2
     5    47    50    1
     6    47    48    1
     7    48    49    1
     8    49    46    1
     9    46    45    1
    10    45    34    1
    11    34    35   ar
    12    35    36   ar
    13    36    40    1
    14    40    41    1
    15    41    42    1
    16    42    43    1
    17    43    44    1
    18    36    37   ar
    19    37    38   ar
    20    38    33    1
    21    33     1    1
    22     1     2   am
    23     2     3    2
    24     4     2    1
    25     4     5    1
    26     5     6    1
    27     6     7    1
    28     7     8    1
    29     8     9    1
    30     9    11    1
    31    11    12   ar
    32    12    13   ar
    33    13    14   ar
    34    14    17    1
    35    17    18    1
    36    18    19    1
    37    19    20    1
    38    20    21    1
    39    21    22   ar
    40    22    23    1
    41    22    24   ar
    42    24    25   ar
    43    25    26    1
    44    25    27   ar
    45    27    28   ar
    46    28    29    1
    47    14    15   ar
    48    15    16   ar
    49     1    30    1
    50    30    31    1
    51    31    32    1
    52    38    39   ar
    53    49    47    1
    54    39    34   ar
    55     9     4    1
    56    16    11   ar
    57    32    30    1
    58    28    21   ar
    59     6    10    1
