@<TRIPOS>MOLECULE
*****
 43 47 0 0 0
SMALL
GASTEIGER

@<TRIPOS>ATOM
      1 C          61.8690   87.8351    9.8775 C.3     1  UNL1        0.0758
      2 C          61.3613   89.2464    9.8611 C.3     1  UNL1        0.0370
      3 C          60.2832   89.6445    8.8971 C.3     1  UNL1        0.0741
      4 N          59.7129   88.6311    7.9496 N.3     1  UNL1       -0.2688
      5 C          60.2206   87.2198    7.9660 C.3     1  UNL1        0.0741
      6 C          61.2987   86.8218    8.9299 C.3     1  UNL1        0.0370
      7 N          63.7347   86.0383   12.8844 N.am    1  UNL1       -0.2848
      8 C          62.6565   86.4364   11.9204 C.2     1  UNL1        0.3010
      9 O          61.2877   85.8338   12.0355 O.2     1  UNL1       -0.2528
     10 N          62.9472   87.4370   10.8415 N.am    1  UNL1       -0.2905
     11 H          64.6331   86.4338   12.8089 H       1  UNL1        0.1513
     12 H          63.8456   87.8325   10.7660 H       1  UNL1        0.1509
     13 C          63.4440   85.0376   13.9634 C.3     1  UNL1        0.1199
     14 C          63.0561   83.6349   13.6005 C.ar    1  UNL1       -0.0025
     15 C          62.2209   82.8200   14.5430 C.ar    1  UNL1       -0.0026
     16 C          61.8330   81.4172   14.1801 C.ar    1  UNL1       -0.0003
     17 C          62.2804   80.8292   12.8747 C.ar    1  UNL1       -0.0000
     18 C          63.1157   81.6441   11.9321 C.ar    1  UNL1       -0.0003
     19 C          63.5035   83.0469   12.2950 C.ar    1  UNL1       -0.0026
     20 C          63.5412   85.4398   15.4052 C.3     1  UNL1        0.1510
     21 C          63.9688   90.6988   15.2034 C.3     1  UNL1        0.0540
     22 C          63.6913   89.3077   15.6912 C.ar    1  UNL1        0.0801
     23 C          63.1554   88.9377   17.0426 C.ar    1  UNL1        0.0308
     24 C          63.0339   87.4437   17.0998 C.ar    1  UNL1        0.0572
     25 C          62.5386   86.6436   18.2679 C.3     1  UNL1        0.0517
     26 N          63.4948   86.8904   15.7840 N.ar    1  UNL1       -0.2532
     27 N          63.9010   88.0424   14.9134 N.ar    1  UNL1       -0.1739
     28 C          58.6347   89.0292    6.9856 C.3     1  UNL1        0.1007
     29 C          58.8963   90.0997    5.9680 C.ar    1  UNL1        0.0129
     30 C          57.8976   91.0977    5.4614 C.ar    1  UNL1        0.0176
     31 C          58.5867   91.9749    4.4586 C.ar    1  UNL1        0.0799
     32 N          60.0113   91.5191    4.3453 N.ar    1  UNL1       -0.3038
     33 C          60.2026   90.3601    5.2782 C.ar    1  UNL1        0.0772
     34 C          61.0603   92.1172    3.4555 C.ar    1  UNL1        0.0640
     35 C          60.7203   93.2815    2.5731 C.ar    1  UNL1        0.0175
     36 C          61.7693   93.8796    1.6833 C.ar    1  UNL1        0.0053
     37 C          63.1582   93.3134    1.6758 C.ar    1  UNL1        0.0715
     38 C          63.4982   92.1490    2.5581 C.ar    1  UNL1        0.0053
     39 C          62.4493   91.5509    3.4480 C.ar    1  UNL1        0.0175
     40 C          64.2072   93.9115    0.7859 C.3     1  UNL1        0.4186
     41 F          65.2562   94.5097   -0.1040 F       1  UNL1       -0.1659
     42 F          65.0062   92.6453    0.8768 F       1  UNL1       -0.1659
     43 F          63.4082   95.1778    0.6950 F       1  UNL1       -0.1659
@<TRIPOS>BOND
     1    21    22    1
     2    22    23   ar
     3    23    24   ar
     4    24    25    1
     5    24    26   ar
     6    26    20    1
     7    20    13    1
     8    13     7    1
     9     7     8   am
    10     8     9    2
    11     8    10   am
    12    10     1    1
    13     1     2    1
    14     2     3    1
    15     3     4    1
    16     4    28    1
    17    28    29    1
    18    29    30   ar
    19    30    31   ar
    20    31    32   ar
    21    32    34    1
    22    34    35   ar
    23    35    36   ar
    24    36    37   ar
    25    37    40    1
    26    40    41    1
    27    40    42    1
    28    40    43    1
    29    37    38   ar
    30    38    39   ar
    31    32    33   ar
    32     4     5    1
    33     5     6    1
    34    13    14    1
    35    14    15   ar
    36    15    16   ar
    37    16    17   ar
    38    17    18   ar
    39    18    19   ar
    40    26    27   ar
    41    27    22   ar
    42     6     1    1
    43    19    14   ar
    44    33    29   ar
    45    39    34   ar
    46     7    11    1
    47    10    12    1
@<TRIPOS>MOLECULE
*****
 43 47 0 0 0
SMALL
GASTEIGER

@<TRIPOS>ATOM
      1 C          59.5101   92.4163    4.1770 C.3     1  UNL1        0.0758
      2 C          58.1065   92.0596    4.5677 C.3     1  UNL1        0.0370
      3 C          57.8497   90.8564    5.4259 C.3     1  UNL1        0.0741
      4 N          58.9965   90.0100    5.8933 N.3     1  UNL1       -0.2688
      5 C          60.4000   90.3667    5.5025 C.3     1  UNL1        0.0741
      6 C          60.6568   91.5698    4.6444 C.3     1  UNL1        0.0370
      7 N          60.0419   94.6883    0.9667 N.am    1  UNL1       -0.2848
      8 C          59.7850   93.4851    1.8249 C.2     1  UNL1        0.3010
      9 O          59.5463   92.1476    1.1892 O.2     1  UNL1       -0.2528
     10 N          59.7669   93.6194    3.3187 N.am    1  UNL1       -0.2905
     11 H          60.1986   95.5661    1.3839 H       1  UNL1        0.1513
     12 H          59.9236   94.4973    3.7360 H       1  UNL1        0.1509
     13 C          60.0600   94.5540   -0.5271 C.3     1  UNL1        0.1199
     14 C          58.8438   94.0559   -1.2501 C.ar    1  UNL1       -0.0025
     15 C          58.9822   93.0165   -2.3228 C.ar    1  UNL1       -0.0026
     16 C          57.7659   92.5184   -3.0458 C.ar    1  UNL1       -0.0003
     17 C          56.4114   93.0597   -2.6961 C.ar    1  UNL1       -0.0000
     18 C          56.2731   94.0990   -1.6234 C.ar    1  UNL1       -0.0003
     19 C          57.4892   94.5971   -0.9004 C.ar    1  UNL1       -0.0026
     20 C          61.2943   94.9177   -1.2980 C.3     1  UNL1        0.1510
     21 C          64.9651   95.5664    2.4417 C.3     1  UNL1        0.0540
     22 C          64.3054   95.3000    1.1211 C.ar    1  UNL1        0.0801
     23 C          65.0055   94.9628   -0.1620 C.ar    1  UNL1        0.0308
     24 C          63.9627   94.7786   -1.2244 C.ar    1  UNL1        0.0572
     25 C          64.2193   94.4319   -2.6610 C.3     1  UNL1        0.0517
     26 N          62.6182   95.0019   -0.5979 N.ar    1  UNL1       -0.2532
     27 N          62.8300   95.3242    0.8517 N.ar    1  UNL1       -0.1739
     28 C          58.7396   88.8068    6.7515 C.3     1  UNL1        0.1007
     29 C          59.6982   88.4496    7.8485 C.ar    1  UNL1        0.0129
     30 C          60.2500   89.3905    8.8782 C.ar    1  UNL1        0.0176
     31 C          61.1661   88.6112    9.7745 C.ar    1  UNL1        0.0799
     32 N          61.1805   87.1887    9.2988 N.ar    1  UNL1       -0.3038
     33 C          60.2733   87.0888    8.1084 C.ar    1  UNL1        0.0772
     34 C          61.9645   86.0636    9.9067 C.ar    1  UNL1        0.0640
     35 C          61.8729   85.7956   11.3796 C.ar    1  UNL1        0.0175
     36 C          62.6569   84.6706   11.9875 C.ar    1  UNL1        0.0053
     37 C          63.5325   83.8134   11.1224 C.ar    1  UNL1        0.0715
     38 C          63.6242   84.0813    9.6494 C.ar    1  UNL1        0.0053
     39 C          62.8402   85.2064    9.0415 C.ar    1  UNL1        0.0175
     40 C          64.3165   82.6884   11.7303 C.3     1  UNL1        0.4186
     41 F          65.1006   81.5633   12.3382 F       1  UNL1       -0.1659
     42 F          64.0944   81.8664   10.4954 F       1  UNL1       -0.1659
     43 F          64.5386   83.5104   12.9653 F       1  UNL1       -0.1659
@<TRIPOS>BOND
     1    21    22    1
     2    22    23   ar
     3    23    24   ar
     4    24    25    1
     5    24    26   ar
     6    26    20    1
     7    20    13    1
     8    13     7    1
     9     7     8   am
    10     8     9    2
    11     8    10   am
    12    10     1    1
    13     1     2    1
    14     2     3    1
    15     3     4    1
    16     4    28    1
    17    28    29    1
    18    29    30   ar
    19    30    31   ar
    20    31    32   ar
    21    32    34    1
    22    34    35   ar
    23    35    36   ar
    24    36    37   ar
    25    37    40    1
    26    40    41    1
    27    40    42    1
    28    40    43    1
    29    37    38   ar
    30    38    39   ar
    31    32    33   ar
    32     4     5    1
    33     5     6    1
    34    13    14    1
    35    14    15   ar
    36    15    16   ar
    37    16    17   ar
    38    17    18   ar
    39    18    19   ar
    40    26    27   ar
    41    27    22   ar
    42     6     1    1
    43    19    14   ar
    44    33    29   ar
    45    39    34   ar
    46     7    11    1
    47    10    12    1
@<TRIPOS>MOLECULE
*****
 43 47 0 0 0
SMALL
GASTEIGER

@<TRIPOS>ATOM
      1 C          59.7050   92.5889    4.0601 C.3     1  UNL1        0.0758
      2 C          58.2867   92.2831    4.4406 C.3     1  UNL1        0.0370
      3 C          57.9770   91.0716    5.2690 C.3     1  UNL1        0.0741
      4 N          59.0856   90.1659    5.7169 N.3     1  UNL1       -0.2688
      5 C          60.5039   90.4717    5.3365 C.3     1  UNL1        0.0741
      6 C          60.8136   91.6832    4.5081 C.3     1  UNL1        0.0370
      7 N          60.1161   94.9785    0.9182 N.am    1  UNL1       -0.2848
      8 C          59.8063   93.7669    1.7467 C.2     1  UNL1        0.3010
      9 O          59.2881   92.5218    1.0900 O.2     1  UNL1       -0.2528
     10 N          60.0147   93.8005    3.2317 N.am    1  UNL1       -0.2905
     11 H          60.4562   95.7957    1.3492 H       1  UNL1        0.1513
     12 H          60.3548   94.6177    3.6627 H       1  UNL1        0.1509
     13 C          59.9076   94.9449   -0.5668 C.3     1  UNL1        0.1199
     14 C          60.9651   94.3665   -1.4597 C.ar    1  UNL1       -0.0025
     15 C          60.7742   94.3692   -2.9475 C.ar    1  UNL1       -0.0026
     16 C          61.8318   93.7908   -3.8403 C.ar    1  UNL1       -0.0003
     17 C          63.0801   93.2097   -3.2453 C.ar    1  UNL1       -0.0000
     18 C          63.2709   93.2070   -1.7575 C.ar    1  UNL1       -0.0003
     19 C          62.2135   93.7854   -0.8647 C.ar    1  UNL1       -0.0026
     20 C          58.6417   95.4897   -1.1590 C.3     1  UNL1        0.1510
     21 C          55.9244   91.1729   -2.5233 C.3     1  UNL1        0.0540
     22 C          56.2628   92.5784   -2.1233 C.ar    1  UNL1        0.0801
     23 C          55.2832   93.6937   -1.9070 C.ar    1  UNL1        0.0308
     24 C          56.0551   94.9200   -1.5194 C.ar    1  UNL1        0.0572
     25 C          55.4727   96.2671   -1.2094 C.3     1  UNL1        0.0517
     26 N          57.5118   94.5627   -1.4962 N.ar    1  UNL1       -0.2532
     27 N          57.6401   93.1155   -1.8695 N.ar    1  UNL1       -0.1739
     28 C          58.7759   88.9543    6.5454 C.3     1  UNL1        0.1007
     29 C          59.6708   88.5791    7.6891 C.ar    1  UNL1        0.0129
     30 C          60.1213   89.4905    8.7919 C.ar    1  UNL1        0.0176
     31 C          61.0013   88.7012    9.7153 C.ar    1  UNL1        0.0799
     32 N          61.0946   87.3018    9.1832 N.ar    1  UNL1       -0.3038
     33 C          60.2723   87.2264    7.9309 C.ar    1  UNL1        0.0772
     34 C          61.8735   86.1757    9.7957 C.ar    1  UNL1        0.0640
     35 C          62.7971   85.3537    8.9467 C.ar    1  UNL1        0.0175
     36 C          63.5760   84.2276    9.5592 C.ar    1  UNL1        0.0053
     37 C          63.4312   83.9235   11.0208 C.ar    1  UNL1        0.0715
     38 C          62.5074   84.7455   11.8700 C.ar    1  UNL1        0.0053
     39 C          61.7286   85.8716   11.2574 C.ar    1  UNL1        0.0175
     40 C          64.2100   82.7974   11.6334 C.3     1  UNL1        0.4186
     41 F          64.9889   81.6713   12.2460 F       1  UNL1       -0.1659
     42 F          63.7607   81.8863   10.5297 F       1  UNL1       -0.1659
     43 F          64.6593   83.7085   12.7371 F       1  UNL1       -0.1659
@<TRIPOS>BOND
     1    21    22    1
     2    22    23   ar
     3    23    24   ar
     4    24    25    1
     5    24    26   ar
     6    26    20    1
     7    20    13    1
     8    13     7    1
     9     7     8   am
    10     8     9    2
    11     8    10   am
    12    10     1    1
    13     1     2    1
    14     2     3    1
    15     3     4    1
    16     4    28    1
    17    28    29    1
    18    29    30   ar
    19    30    31   ar
    20    31    32   ar
    21    32    34    1
    22    34    35   ar
    23    35    36   ar
    24    36    37   ar
    25    37    40    1
    26    40    41    1
    27    40    42    1
    28    40    43    1
    29    37    38   ar
    30    38    39   ar
    31    32    33   ar
    32     4     5    1
    33     5     6    1
    34    13    14    1
    35    14    15   ar
    36    15    16   ar
    37    16    17   ar
    38    17    18   ar
    39    18    19   ar
    40    26    27   ar
    41    27    22   ar
    42     6     1    1
    43    19    14   ar
    44    33    29   ar
    45    39    34   ar
    46     7    11    1
    47    10    12    1
@<TRIPOS>MOLECULE
*****
 43 47 0 0 0
SMALL
GASTEIGER

@<TRIPOS>ATOM
      1 C          62.0331   88.5164    9.9641 C.3     1  UNL1        0.0758
      2 C          61.4624   87.3624    9.1945 C.3     1  UNL1        0.0370
      3 C          60.3749   87.5965    8.1883 C.3     1  UNL1        0.0741
      4 N          59.8581   88.9846    7.9518 N.3     1  UNL1       -0.2688
      5 C          60.4288   90.1387    8.7214 C.3     1  UNL1        0.0741
      6 C          61.5163   89.9046    9.7276 C.3     1  UNL1        0.0370
      7 N          64.0414   88.5301   13.3872 N.am    1  UNL1       -0.2848
      8 C          62.9538   88.7642   12.3810 C.2     1  UNL1        0.3010
      9 O          61.6993   89.4802   12.7854 O.2     1  UNL1       -0.2528
     10 N          63.1207   88.2823   10.9704 N.am    1  UNL1       -0.2905
     11 H          64.8648   88.0602   13.1217 H       1  UNL1        0.1513
     12 H          63.9441   87.8124   10.7049 H       1  UNL1        0.1509
     13 C          63.8744   89.0120   14.7978 C.3     1  UNL1        0.1199
     14 C          63.5523   88.0363   15.8905 C.ar    1  UNL1       -0.0025
     15 C          63.7727   86.5684   15.6742 C.ar    1  UNL1       -0.0026
     16 C          63.4505   85.5926   16.7670 C.ar    1  UNL1       -0.0003
     17 C          62.9080   86.0847   18.0760 C.ar    1  UNL1       -0.0000
     18 C          62.6876   87.5525   18.2922 C.ar    1  UNL1       -0.0003
     19 C          63.0098   88.5283   17.1996 C.ar    1  UNL1       -0.0026
     20 C          64.0296   90.4697   15.1157 C.3     1  UNL1        0.1510
     21 C          65.5955   92.9786   10.7414 C.3     1  UNL1        0.0540
     22 C          65.5010   92.5194   12.1663 C.ar    1  UNL1        0.0801
     23 C          66.3749   92.9721   13.2983 C.ar    1  UNL1        0.0308
     24 C          65.9301   92.2594   14.5409 C.ar    1  UNL1        0.0572
     25 C          66.5289   92.4129   15.9076 C.3     1  UNL1        0.0517
     26 N          64.7813   91.3662   14.1770 N.ar    1  UNL1       -0.2532
     27 N          64.5161   91.5269   12.7094 N.ar    1  UNL1       -0.1739
     28 C          58.7705   89.2187    6.9456 C.3     1  UNL1        0.1007
     29 C          58.9425   90.2655    5.8851 C.ar    1  UNL1        0.0129
     30 C          57.8797   91.2001    5.3883 C.ar    1  UNL1        0.0176
     31 C          58.4878   92.0737    4.3314 C.ar    1  UNL1        0.0799
     32 N          59.9265   91.6790    4.1750 N.ar    1  UNL1       -0.3038
     33 C          60.2075   90.5615    5.1353 C.ar    1  UNL1        0.0772
     34 C          60.9113   92.2939    3.2252 C.ar    1  UNL1        0.0640
     35 C          62.3492   91.8684    3.2562 C.ar    1  UNL1        0.0175
     36 C          63.3340   92.4833    2.3064 C.ar    1  UNL1        0.0053
     37 C          62.8808   93.5236    1.3256 C.ar    1  UNL1        0.0715
     38 C          61.4428   93.9492    1.2946 C.ar    1  UNL1        0.0053
     39 C          60.4580   93.3344    2.2444 C.ar    1  UNL1        0.0175
     40 C          63.8655   94.1385    0.3758 C.3     1  UNL1        0.4186
     41 F          64.8502   94.7534   -0.5741 F       1  UNL1       -0.1659
     42 F          64.9235   94.0844    1.4377 F       1  UNL1       -0.1659
     43 F          62.8075   94.1927   -0.6862 F       1  UNL1       -0.1659
@<TRIPOS>BOND
     1    21    22    1
     2    22    23   ar
     3    23    24   ar
     4    24    25    1
     5    24    26   ar
     6    26    20    1
     7    20    13    1
     8    13     7    1
     9     7     8   am
    10     8     9    2
    11     8    10   am
    12    10     1    1
    13     1     2    1
    14     2     3    1
    15     3     4    1
    16     4    28    1
    17    28    29    1
    18    29    30   ar
    19    30    31   ar
    20    31    32   ar
    21    32    34    1
    22    34    35   ar
    23    35    36   ar
    24    36    37   ar
    25    37    40    1
    26    40    41    1
    27    40    42    1
    28    40    43    1
    29    37    38   ar
    30    38    39   ar
    31    32    33   ar
    32     4     5    1
    33     5     6    1
    34    13    14    1
    35    14    15   ar
    36    15    16   ar
    37    16    17   ar
    38    17    18   ar
    39    18    19   ar
    40    26    27   ar
    41    27    22   ar
    42     6     1    1
    43    19    14   ar
    44    33    29   ar
    45    39    34   ar
    46     7    11    1
    47    10    12    1
@<TRIPOS>MOLECULE
*****
 43 47 0 0 0
SMALL
GASTEIGER

@<TRIPOS>ATOM
      1 C          61.8687   86.5248    8.9027 C.3     1  UNL1        0.0758
      2 C          61.7200   87.9272    9.4136 C.3     1  UNL1        0.0370
      3 C          60.6131   88.7992    8.8996 C.3     1  UNL1        0.0741
      4 N          59.6549   88.2688    7.8746 N.3     1  UNL1       -0.2688
      5 C          59.8036   86.8664    7.3637 C.3     1  UNL1        0.0741
      6 C          60.9105   85.9944    7.8777 C.3     1  UNL1        0.0370
      7 N          64.0547   84.2906   11.3482 N.am    1  UNL1       -0.2848
      8 C          62.9478   85.1627   10.8341 C.2     1  UNL1        0.3010
      9 O          61.8129   85.5448   11.7376 O.2     1  UNL1       -0.2528
     10 N          62.9757   85.6527    9.4167 N.am    1  UNL1       -0.2905
     11 H          64.7996   84.0398   10.7552 H       1  UNL1        0.1513
     12 H          63.7205   85.4019    8.8238 H       1  UNL1        0.1509
     13 C          64.0268   83.8006   12.7656 C.3     1  UNL1        0.1199
     14 C          63.1622   82.6330   13.1386 C.ar    1  UNL1       -0.0025
     15 C          62.1020   82.7899   14.1880 C.ar    1  UNL1       -0.0026
     16 C          61.2373   81.6222   14.5610 C.ar    1  UNL1       -0.0003
     17 C          61.4328   80.2979   13.8845 C.ar    1  UNL1       -0.0000
     18 C          62.4930   80.1410   12.8350 C.ar    1  UNL1       -0.0003
     19 C          63.3577   81.3085   12.4621 C.ar    1  UNL1       -0.0026
     20 C          64.8636   84.4781   13.8100 C.3     1  UNL1        0.1510
     21 C          62.6818   86.3910   18.2214 C.3     1  UNL1        0.0540
     22 C          63.2199   86.2870   16.8251 C.ar    1  UNL1        0.0801
     23 C          63.2534   87.3898   15.8088 C.ar    1  UNL1        0.0308
     24 C          63.8732   86.8463   14.5556 C.ar    1  UNL1        0.0572
     25 C          64.1032   87.6078   13.2838 C.3     1  UNL1        0.0517
     26 N          64.2228   85.4078   14.7974 N.ar    1  UNL1       -0.2532
     27 N          63.8190   85.0622   16.2001 N.ar    1  UNL1       -0.1739
     28 C          58.5479   89.1409    7.3606 C.3     1  UNL1        0.1007
     29 C          58.8054   90.0903    6.2282 C.ar    1  UNL1        0.0129
     30 C          57.7835   90.9582    5.5556 C.ar    1  UNL1        0.0176
     31 C          58.4765   91.7428    4.4813 C.ar    1  UNL1        0.0799
     32 N          59.9268   91.3599    4.4900 N.ar    1  UNL1       -0.3038
     33 C          60.1301   90.3386    5.5696 C.ar    1  UNL1        0.0772
     34 C          60.9875   91.9029    3.5789 C.ar    1  UNL1        0.0640
     35 C          60.6640   93.0224    2.6346 C.ar    1  UNL1        0.0175
     36 C          61.7247   93.5654    1.7236 C.ar    1  UNL1        0.0053
     37 C          63.1090   92.9889    1.7569 C.ar    1  UNL1        0.0715
     38 C          63.4326   91.8693    2.7013 C.ar    1  UNL1        0.0053
     39 C          62.3719   91.3263    3.6123 C.ar    1  UNL1        0.0175
     40 C          64.1697   93.5319    0.8459 C.3     1  UNL1        0.4186
     41 F          65.2305   94.0749   -0.0650 F       1  UNL1       -0.1659
     42 F          63.2139   93.4631   -0.3080 F       1  UNL1       -0.1659
     43 F          65.1256   93.6007    1.9999 F       1  UNL1       -0.1659
@<TRIPOS>BOND
     1    21    22    1
     2    22    23   ar
     3    23    24   ar
     4    24    25    1
     5    24    26   ar
     6    26    20    1
     7    20    13    1
     8    13     7    1
     9     7     8   am
    10     8     9    2
    11     8    10   am
    12    10     1    1
    13     1     2    1
    14     2     3    1
    15     3     4    1
    16     4    28    1
    17    28    29    1
    18    29    30   ar
    19    30    31   ar
    20    31    32   ar
    21    32    34    1
    22    34    35   ar
    23    35    36   ar
    24    36    37   ar
    25    37    40    1
    26    40    41    1
    27    40    42    1
    28    40    43    1
    29    37    38   ar
    30    38    39   ar
    31    32    33   ar
    32     4     5    1
    33     5     6    1
    34    13    14    1
    35    14    15   ar
    36    15    16   ar
    37    16    17   ar
    38    17    18   ar
    39    18    19   ar
    40    26    27   ar
    41    27    22   ar
    42     6     1    1
    43    19    14   ar
    44    33    29   ar
    45    39    34   ar
    46     7    11    1
    47    10    12    1
@<TRIPOS>MOLECULE
*****
 43 47 0 0 0
SMALL
GASTEIGER

@<TRIPOS>ATOM
      1 C          59.2464   92.4517    4.5052 C.3     1  UNL1        0.0758
      2 C          57.8932   91.9490    4.9127 C.3     1  UNL1        0.0370
      3 C          57.7642   90.6339    5.6224 C.3     1  UNL1        0.0741
      4 N          58.9884   89.8215    5.9246 N.3     1  UNL1       -0.2688
      5 C          60.3416   90.3242    5.5172 C.3     1  UNL1        0.0741
      6 C          60.4706   91.6393    4.8075 C.3     1  UNL1        0.0370
      7 N          60.2027   95.1537    1.7601 N.am    1  UNL1       -0.2848
      8 C          60.0736   93.8385    2.4698 C.2     1  UNL1        0.3010
      9 O          60.6427   92.5948    1.8538 O.2     1  UNL1       -0.2528
     10 N          59.3755   93.7670    3.7955 N.am    1  UNL1       -0.2905
     11 H          59.8292   95.9699    2.1644 H       1  UNL1        0.1513
     12 H          59.0020   94.5832    4.1998 H       1  UNL1        0.1509
     13 C          60.9008   95.2252    0.4344 C.3     1  UNL1        0.1199
     14 C          62.3827   95.0070    0.3545 C.ar    1  UNL1       -0.0025
     15 C          63.0458   94.8441   -0.9811 C.ar    1  UNL1       -0.0026
     16 C          64.5278   94.6260   -1.0610 C.ar    1  UNL1       -0.0003
     17 C          65.3465   94.5706    0.1946 C.ar    1  UNL1       -0.0000
     18 C          64.6834   94.7335    1.5302 C.ar    1  UNL1       -0.0003
     19 C          63.2015   94.9517    1.6101 C.ar    1  UNL1       -0.0026
     20 C          60.1171   95.5148   -0.8113 C.3     1  UNL1        0.1510
     21 C          56.3368   91.9526   -1.7600 C.3     1  UNL1        0.0540
     22 C          57.5729   92.7915   -1.8955 C.ar    1  UNL1        0.0801
     23 C          58.5655   92.7242   -3.0181 C.ar    1  UNL1        0.0308
     24 C          59.6394   93.7361   -2.7486 C.ar    1  UNL1        0.0572
     25 C          60.8327   94.0076   -3.6159 C.3     1  UNL1        0.0517
     26 N          59.3105   94.4289   -1.4594 N.ar    1  UNL1       -0.2532
     27 N          58.0333   93.8451   -0.9322 N.ar    1  UNL1       -0.1739
     28 C          58.8593   88.5063    6.6344 C.3     1  UNL1        0.1007
     29 C          59.7582   88.1874    7.7920 C.ar    1  UNL1        0.0129
     30 C          60.2165   89.1529    8.8445 C.ar    1  UNL1        0.0176
     31 C          61.0982   88.4092    9.8034 C.ar    1  UNL1        0.0799
     32 N          61.1848   86.9840    9.3436 N.ar    1  UNL1       -0.3038
     33 C          60.3566   86.8469    8.1005 C.ar    1  UNL1        0.0772
     34 C          61.9629   85.8883   10.0099 C.ar    1  UNL1        0.0640
     35 C          62.8847   85.0244    9.2013 C.ar    1  UNL1        0.0175
     36 C          63.6628   83.9288    9.8676 C.ar    1  UNL1        0.0053
     37 C          63.5192   83.6970   11.3426 C.ar    1  UNL1        0.0715
     38 C          62.5974   84.5609   12.1513 C.ar    1  UNL1        0.0053
     39 C          61.8193   85.6566   11.4850 C.ar    1  UNL1        0.0175
     40 C          64.2973   82.6013   12.0089 C.3     1  UNL1        0.4186
     41 F          65.0754   81.5056   12.6752 F       1  UNL1       -0.1659
     42 F          64.8096   83.5814   13.0222 F       1  UNL1       -0.1659
     43 F          63.7850   81.6211   10.9955 F       1  UNL1       -0.1659
@<TRIPOS>BOND
     1    21    22    1
     2    22    23   ar
     3    23    24   ar
     4    24    25    1
     5    24    26   ar
     6    26    20    1
     7    20    13    1
     8    13     7    1
     9     7     8   am
    10     8     9    2
    11     8    10   am
    12    10     1    1
    13     1     2    1
    14     2     3    1
    15     3     4    1
    16     4    28    1
    17    28    29    1
    18    29    30   ar
    19    30    31   ar
    20    31    32   ar
    21    32    34    1
    22    34    35   ar
    23    35    36   ar
    24    36    37   ar
    25    37    40    1
    26    40    41    1
    27    40    42    1
    28    40    43    1
    29    37    38   ar
    30    38    39   ar
    31    32    33   ar
    32     4     5    1
    33     5     6    1
    34    13    14    1
    35    14    15   ar
    36    15    16   ar
    37    16    17   ar
    38    17    18   ar
    39    18    19   ar
    40    26    27   ar
    41    27    22   ar
    42     6     1    1
    43    19    14   ar
    44    33    29   ar
    45    39    34   ar
    46     7    11    1
    47    10    12    1
@<TRIPOS>MOLECULE
*****
 43 47 0 0 0
SMALL
GASTEIGER

@<TRIPOS>ATOM
      1 C          60.4281   89.2660   11.0794 C.3     1  UNL1        0.0758
      2 C          60.2125   90.4825   10.2289 C.3     1  UNL1        0.0370
      3 C          59.7648   90.3325    8.8052 C.3     1  UNL1        0.0741
      4 N          59.5327   88.9659    8.2320 N.3     1  UNL1       -0.2688
      5 C          59.7482   87.7494    9.0826 C.3     1  UNL1        0.0741
      6 C          60.1959   87.8994   10.5063 C.3     1  UNL1        0.0370
      7 N          62.7871   89.5785   14.2556 N.am    1  UNL1       -0.2848
      8 C          62.3393   89.4285   12.8318 C.2     1  UNL1        0.3010
      9 O          63.3551   89.2910   11.7367 O.2     1  UNL1       -0.2528
     10 N          60.8759   89.4160   12.5032 N.am    1  UNL1       -0.2905
     11 H          62.1204   89.6687   14.9744 H       1  UNL1        0.1513
     12 H          60.2092   89.5062   13.2220 H       1  UNL1        0.1509
     13 C          64.2506   89.5910   14.5842 C.3     1  UNL1        0.1199
     14 C          65.0222   90.8758   14.5222 C.ar    1  UNL1       -0.0025
     15 C          65.3869   91.5934   15.7879 C.ar    1  UNL1       -0.0026
     16 C          66.1586   92.8783   15.7259 C.ar    1  UNL1       -0.0003
     17 C          66.5654   93.4454   14.3982 C.ar    1  UNL1       -0.0000
     18 C          66.2006   92.7278   13.1325 C.ar    1  UNL1       -0.0003
     19 C          65.4290   91.4430   13.1945 C.ar    1  UNL1       -0.0026
     20 C          64.9424   88.3187   14.9749 C.3     1  UNL1        0.1510
     21 C          62.8014   83.5001   14.6963 C.3     1  UNL1        0.0540
     22 C          63.1526   84.8800   15.1680 C.ar    1  UNL1        0.0801
     23 C          62.6411   85.5433   16.4124 C.ar    1  UNL1        0.0308
     24 C          63.2493   86.9122   16.4915 C.ar    1  UNL1        0.0572
     25 C          63.0119   87.9211   17.5757 C.3     1  UNL1        0.0517
     26 N          64.1367   87.0949   15.2960 N.ar    1  UNL1       -0.2532
     27 N          64.0769   85.8390   14.4780 N.ar    1  UNL1       -0.1739
     28 C          59.0849   88.8159    6.8082 C.3     1  UNL1        0.1007
     29 C          59.1898   89.9758    5.8629 C.ar    1  UNL1        0.0129
     30 C          58.0950   90.9470    5.5342 C.ar    1  UNL1        0.0176
     31 C          58.6364   91.9396    4.5484 C.ar    1  UNL1        0.0799
     32 N          60.0658   91.5817    4.2679 N.ar    1  UNL1       -0.3038
     33 C          60.4078   90.3680    5.0802 C.ar    1  UNL1        0.0772
     34 C          60.9908   92.3097    3.3382 C.ar    1  UNL1        0.0640
     35 C          60.4866   93.4738    2.5379 C.ar    1  UNL1        0.0175
     36 C          61.4115   94.2018    1.6082 C.ar    1  UNL1        0.0053
     37 C          62.8408   93.7657    1.4788 C.ar    1  UNL1        0.0715
     38 C          63.3452   92.6016    2.2790 C.ar    1  UNL1        0.0053
     39 C          62.4202   91.8736    3.2087 C.ar    1  UNL1        0.0175
     40 C          63.7658   94.4937    0.5491 C.3     1  UNL1        0.4186
     41 F          64.6908   95.2218   -0.3807 F       1  UNL1       -0.1659
     42 F          64.6071   93.2587    0.4190 F       1  UNL1       -0.1659
     43 F          62.9245   95.7288    0.6791 F       1  UNL1       -0.1659
@<TRIPOS>BOND
     1    21    22    1
     2    22    23   ar
     3    23    24   ar
     4    24    25    1
     5    24    26   ar
     6    26    20    1
     7    20    13    1
     8    13     7    1
     9     7     8   am
    10     8     9    2
    11     8    10   am
    12    10     1    1
    13     1     2    1
    14     2     3    1
    15     3     4    1
    16     4    28    1
    17    28    29    1
    18    29    30   ar
    19    30    31   ar
    20    31    32   ar
    21    32    34    1
    22    34    35   ar
    23    35    36   ar
    24    36    37   ar
    25    37    40    1
    26    40    41    1
    27    40    42    1
    28    40    43    1
    29    37    38   ar
    30    38    39   ar
    31    32    33   ar
    32     4     5    1
    33     5     6    1
    34    13    14    1
    35    14    15   ar
    36    15    16   ar
    37    16    17   ar
    38    17    18   ar
    39    18    19   ar
    40    26    27   ar
    41    27    22   ar
    42     6     1    1
    43    19    14   ar
    44    33    29   ar
    45    39    34   ar
    46     7    11    1
    47    10    12    1
