@<TRIPOS>MOLECULE
*****
 36 39 0 0 0
SMALL
GASTEIGER

@<TRIPOS>ATOM
      1 C          64.5914   91.8026   11.2672 C.ar    1  UNL1        0.1362
      2 C          65.1555   91.8798   12.6550 C.ar    1  UNL1        0.0686
      3 C          66.2605   92.8464   12.9627 C.ar    1  UNL1        0.1364
      4 N          66.8014   93.7357   11.8828 N.ar    1  UNL1       -0.2083
      5 C          66.2374   93.6586   10.4950 C.ar    1  UNL1        0.2374
      6 N          65.1323   92.6920   10.1873 N.ar    1  UNL1       -0.2083
      7 N          61.2764   88.9029   10.3440 N.3     1  UNL1       -0.2698
      8 C          61.4940   90.0982    9.4642 C.3     1  UNL1        0.0939
      9 C          62.5990   91.0647    9.7720 C.3     1  UNL1        0.1095
     10 N          63.4864   90.8361   10.9595 N.pl3   1  UNL1       -0.2903
     11 C          63.2688   89.6408   11.8392 C.3     1  UNL1        0.1095
     12 C          62.1638   88.6743   11.5315 C.3     1  UNL1        0.0939
     13 C          60.4540   86.7084    9.2226 C.3     1  UNL1        0.0188
     14 C          60.1714   87.9364   10.0362 C.3     1  UNL1        0.0722
     15 N          66.8246   92.9235   14.3505 N.pl3   1  UNL1       -0.2867
     16 C          68.1273   93.3736   14.9425 C.3     1  UNL1        0.0948
     17 C          67.6222   93.0326   16.3131 C.3     1  UNL1        0.0506
     18 C          66.3195   92.5826   15.7212 C.3     1  UNL1        0.1525
     19 C          65.0413   92.0232   16.2718 C.2     1  UNL1        0.2406
     20 O          64.3476   92.7153   17.4075 O.2     1  UNL1       -0.2733
     21 N          64.4567   90.7718   15.6866 N.am    1  UNL1       -0.3027
     22 H          64.9120   90.3176   14.9412 H       1  UNL1        0.1495
     23 C          63.1784   90.2125   16.2372 C.3     1  UNL1        0.0942
     24 C          63.2148   89.0468   17.1804 C.3     1  UNL1        0.0492
     25 C          63.2111   87.6464   16.6426 C.ar    1  UNL1       -0.0013
     26 C          64.0776   87.2908   15.4710 C.ar    1  UNL1       -0.0004
     27 C          64.0740   85.8904   14.9332 C.ar    1  UNL1        0.0293
     28 C          63.2039   84.8459   15.5671 C.ar    1  UNL1        0.1491
     29 N          62.3374   85.2016   16.7387 N.ar    1  UNL1       -0.2339
     30 C          62.3411   86.6019   17.2765 C.ar    1  UNL1        0.0954
     31 C          63.2002   83.4456   15.0293 C.1     1  UNL1        0.1198
     32 N          63.1966   82.0453   14.4916 N.1     1  UNL1       -0.1893
     33 C          66.7783   94.5480    9.4150 C.3     1  UNL1        0.4524
     34 F          67.3191   95.4373    8.3350 F       1  UNL1       -0.1632
     35 F          65.8640   95.6491    9.8639 F       1  UNL1       -0.1632
     36 F          67.6926   93.4468    8.9661 F       1  UNL1       -0.1632
@<TRIPOS>BOND
     1    13    14    1
     2    14     7    1
     3     7     8    1
     4     8     9    1
     5     9    10    1
     6    10     1    1
     7     1     2   ar
     8     2     3   ar
     9     3    15    1
    10    15    16    1
    11    16    17    1
    12    17    18    1
    13    18    19    1
    14    19    20    2
    15    19    21   am
    16    21    23    1
    17    23    24    1
    18    24    25    1
    19    25    26   ar
    20    26    27   ar
    21    27    28   ar
    22    28    31    1
    23    31    32    3
    24    28    29   ar
    25    29    30   ar
    26     3     4   ar
    27     4     5   ar
    28     5    33    1
    29    33    34    1
    30    33    35    1
    31    33    36    1
    32     5     6   ar
    33    10    11    1
    34    11    12    1
    35    12     7    1
    36     6     1   ar
    37    18    15    1
    38    30    25   ar
    39    21    22    1
@<TRIPOS>MOLECULE
*****
 36 39 0 0 0
SMALL
GASTEIGER

@<TRIPOS>ATOM
      1 C          64.2060   91.4330   11.9347 C.ar    1  UNL1        0.1362
      2 C          63.2742   90.7656   10.9671 C.ar    1  UNL1        0.0686
      3 C          62.4790   89.5683   11.3961 C.ar    1  UNL1        0.1364
      4 N          62.6156   89.0384   12.7927 N.ar    1  UNL1       -0.2083
      5 C          63.5473   89.7059   13.7603 C.ar    1  UNL1        0.2374
      6 N          64.3425   90.9032   13.3313 N.ar    1  UNL1       -0.2083
      7 N          66.5916   95.0250   10.6476 N.3     1  UNL1       -0.2698
      8 C          66.5303   94.6456   12.0975 C.3     1  UNL1        0.0939
      9 C          65.7351   93.4483   12.5265 C.3     1  UNL1        0.1095
     10 N          65.0012   92.6304   11.5056 N.pl3   1  UNL1       -0.2903
     11 C          65.0624   93.0097   10.0557 C.3     1  UNL1        0.1095
     12 C          65.8576   94.2071    9.6267 C.3     1  UNL1        0.0939
     13 C          67.3711   96.6581    8.7833 C.3     1  UNL1        0.0188
     14 C          67.3868   96.2223   10.2185 C.3     1  UNL1        0.0722
     15 N          61.5472   88.9008   10.4285 N.pl3   1  UNL1       -0.2867
     16 C          60.2634   89.2858    9.7548 C.3     1  UNL1        0.0948
     17 C          60.2295   87.9568    9.0600 C.3     1  UNL1        0.0506
     18 C          61.5133   87.5718    9.7336 C.3     1  UNL1        0.1525
     19 C          62.3970   86.3600    9.7186 C.2     1  UNL1        0.2406
     20 O          63.2637   86.0784    8.5272 O.2     1  UNL1       -0.2733
     21 N          62.4141   85.4295   10.8951 N.am    1  UNL1       -0.3027
     22 H          61.8452   85.6143   11.6771 H       1  UNL1        0.1495
     23 C          63.2978   84.2176   10.8801 C.3     1  UNL1        0.0942
     24 C          63.5287   83.4422   12.1432 C.3     1  UNL1        0.0492
     25 C          63.3413   84.1055   13.4755 C.ar    1  UNL1       -0.0013
     26 C          64.4655   84.8858   14.0896 C.ar    1  UNL1       -0.0004
     27 C          64.2781   85.5491   15.4219 C.ar    1  UNL1        0.0293
     28 C          62.9663   85.4321   16.1400 C.ar    1  UNL1        0.1491
     29 N          61.8420   84.6518   15.5258 N.ar    1  UNL1       -0.2339
     30 C          62.0295   83.9885   14.1936 C.ar    1  UNL1        0.0954
     31 C          62.7789   86.0954   17.4722 C.1     1  UNL1        0.1198
     32 N          62.5914   86.7587   18.8044 N.1     1  UNL1       -0.1893
     33 C          63.6840   89.1760   15.1570 C.3     1  UNL1        0.4524
     34 F          63.8206   88.6462   16.5536 F       1  UNL1       -0.1632
     35 F          64.9876   88.5336   14.7857 F       1  UNL1       -0.1632
     36 F          62.3803   89.8184   15.5282 F       1  UNL1       -0.1632
@<TRIPOS>BOND
     1    13    14    1
     2    14     7    1
     3     7     8    1
     4     8     9    1
     5     9    10    1
     6    10     1    1
     7     1     2   ar
     8     2     3   ar
     9     3    15    1
    10    15    16    1
    11    16    17    1
    12    17    18    1
    13    18    19    1
    14    19    20    2
    15    19    21   am
    16    21    23    1
    17    23    24    1
    18    24    25    1
    19    25    26   ar
    20    26    27   ar
    21    27    28   ar
    22    28    31    1
    23    31    32    3
    24    28    29   ar
    25    29    30   ar
    26     3     4   ar
    27     4     5   ar
    28     5    33    1
    29    33    34    1
    30    33    35    1
    31    33    36    1
    32     5     6   ar
    33    10    11    1
    34    11    12    1
    35    12     7    1
    36     6     1   ar
    37    18    15    1
    38    30    25   ar
    39    21    22    1
@<TRIPOS>MOLECULE
*****
 36 39 0 0 0
SMALL
GASTEIGER

@<TRIPOS>ATOM
      1 C          66.4247   93.2745   12.6453 C.ar    1  UNL1        0.1362
      2 C          65.2344   92.4037   12.9189 C.ar    1  UNL1        0.0686
      3 C          65.2050   91.5365   14.1425 C.ar    1  UNL1        0.1364
      4 N          66.3658   91.5401   15.0924 N.ar    1  UNL1       -0.2083
      5 C          67.5561   92.4109   14.8188 C.ar    1  UNL1        0.2374
      6 N          67.5855   93.2781   13.5953 N.ar    1  UNL1       -0.2083
      7 N          66.5131   95.8761    8.9747 N.3     1  UNL1       -0.2698
      8 C          66.9305   94.4382    8.8850 C.3     1  UNL1        0.0939
      9 C          66.9011   93.5710   10.1086 C.3     1  UNL1        0.1095
     10 N          66.4542   94.1417   11.4218 N.pl3   1  UNL1       -0.2903
     11 C          66.0368   95.5796   11.5114 C.3     1  UNL1        0.1095
     12 C          66.0662   96.4468   10.2879 C.3     1  UNL1        0.0939
     13 C          65.3356   96.8312    6.8649 C.3     1  UNL1        0.0188
     14 C          66.5426   96.7433    7.7511 C.3     1  UNL1        0.0722
     15 N          64.0146   90.6656   14.4161 N.pl3   1  UNL1       -0.2867
     16 C          63.4207   90.0351   15.6407 C.3     1  UNL1        0.0948
     17 C          62.3312   89.4341   14.8029 C.3     1  UNL1        0.0506
     18 C          62.9252   90.0646   13.5782 C.3     1  UNL1        0.1525
     19 C          62.5748   90.0855   12.1199 C.2     1  UNL1        0.2406
     20 O          63.6110   90.4679   11.1050 O.2     1  UNL1       -0.2733
     21 N          61.1882   89.7239   11.6764 N.am    1  UNL1       -0.3027
     22 H          60.5081   89.4729   12.3425 H       1  UNL1        0.1495
     23 C          60.8378   89.7448   10.2181 C.3     1  UNL1        0.0942
     24 C          60.4646   88.4717    9.5182 C.3     1  UNL1        0.0492
     25 C          61.2836   87.2326    9.7279 C.ar    1  UNL1       -0.0013
     26 C          62.0962   86.6706    8.5993 C.ar    1  UNL1       -0.0004
     27 C          62.9151   85.4315    8.8091 C.ar    1  UNL1        0.0293
     28 C          62.9215   84.7544   10.1475 C.ar    1  UNL1        0.1491
     29 N          62.1089   85.3164   11.2762 N.ar    1  UNL1       -0.2339
     30 C          61.2899   86.5555   11.0664 C.ar    1  UNL1        0.0954
     31 C          63.7404   83.5153   10.3573 C.1     1  UNL1        0.1198
     32 N          64.5593   82.2763   10.5671 N.1     1  UNL1       -0.1893
     33 C          68.7170   92.4145   15.7688 C.3     1  UNL1        0.4524
     34 F          69.8778   92.4181   16.7188 F       1  UNL1       -0.1632
     35 F          67.7878   92.1065   16.9054 F       1  UNL1       -0.1632
     36 F          69.6461   92.7224   14.6323 F       1  UNL1       -0.1632
@<TRIPOS>BOND
     1    13    14    1
     2    14     7    1
     3     7     8    1
     4     8     9    1
     5     9    10    1
     6    10     1    1
     7     1     2   ar
     8     2     3   ar
     9     3    15    1
    10    15    16    1
    11    16    17    1
    12    17    18    1
    13    18    19    1
    14    19    20    2
    15    19    21   am
    16    21    23    1
    17    23    24    1
    18    24    25    1
    19    25    26   ar
    20    26    27   ar
    21    27    28   ar
    22    28    31    1
    23    31    32    3
    24    28    29   ar
    25    29    30   ar
    26     3     4   ar
    27     4     5   ar
    28     5    33    1
    29    33    34    1
    30    33    35    1
    31    33    36    1
    32     5     6   ar
    33    10    11    1
    34    11    12    1
    35    12     7    1
    36     6     1   ar
    37    18    15    1
    38    30    25   ar
    39    21    22    1
@<TRIPOS>MOLECULE
*****
 36 39 0 0 0
SMALL
GASTEIGER

@<TRIPOS>ATOM
      1 C          63.3851   90.7431   11.2277 C.ar    1  UNL1        0.1362
      2 C          63.4977   90.7757   12.7231 C.ar    1  UNL1        0.0686
      3 C          64.5082   91.6687   13.3799 C.ar    1  UNL1        0.1364
      4 N          65.4062   92.5290   12.5412 N.ar    1  UNL1       -0.2083
      5 C          65.2936   92.4965   11.0459 C.ar    1  UNL1        0.2374
      6 N          64.2830   91.6035   10.3891 N.ar    1  UNL1       -0.2083
      7 N          60.3534   88.0641    9.2575 N.3     1  UNL1       -0.2698
      8 C          59.9998   89.4852    9.5822 C.3     1  UNL1        0.0939
      9 C          61.0104   90.3782   10.2390 C.3     1  UNL1        0.1095
     10 N          62.3745   89.8501   10.5710 N.pl3   1  UNL1       -0.2903
     11 C          62.7280   88.4290   10.2462 C.3     1  UNL1        0.1095
     12 C          61.7175   87.5360    9.5895 C.3     1  UNL1        0.0939
     13 C          59.7944   86.0828    7.6725 C.3     1  UNL1        0.0188
     14 C          59.3428   87.1711    8.6007 C.3     1  UNL1        0.0722
     15 N          64.6208   91.7012   14.8753 N.pl3   1  UNL1       -0.2867
     16 C          65.3626   92.5500   15.8650 C.3     1  UNL1        0.0948
     17 C          64.7800   91.7472   16.9902 C.3     1  UNL1        0.0506
     18 C          64.0382   90.8984   16.0005 C.3     1  UNL1        0.1525
     19 C          63.1018   89.7306   16.0964 C.2     1  UNL1        0.2406
     20 O          61.9242   89.6356   15.1722 O.2     1  UNL1       -0.2733
     21 N          63.3430   88.6576   17.1165 N.am    1  UNL1       -0.3027
     22 H          64.1159   88.7199   17.7232 H       1  UNL1        0.1495
     23 C          62.4066   87.4897   17.2124 C.3     1  UNL1        0.0942
     24 C          62.9520   86.0934   17.2635 C.3     1  UNL1        0.0492
     25 C          63.2901   85.3732   15.9917 C.ar    1  UNL1       -0.0013
     26 C          64.5882   85.6526   15.2940 C.ar    1  UNL1       -0.0004
     27 C          64.9262   84.9325   14.0222 C.ar    1  UNL1        0.0293
     28 C          63.9662   83.9330   13.4484 C.ar    1  UNL1        0.1491
     29 N          62.6681   83.6536   14.1462 N.ar    1  UNL1       -0.2339
     30 C          62.3301   84.3737   15.4179 C.ar    1  UNL1        0.0954
     31 C          64.3042   83.2129   12.1767 C.1     1  UNL1        0.1198
     32 N          64.6422   82.4928   10.9051 N.1     1  UNL1       -0.1893
     33 C          66.1916   93.3569   10.2071 C.3     1  UNL1        0.4524
     34 F          67.0896   94.2172    9.3685 F       1  UNL1       -0.1632
     35 F          67.1025   92.1866    9.9820 F       1  UNL1       -0.1632
     36 F          65.2807   94.5271   10.4323 F       1  UNL1       -0.1632
@<TRIPOS>BOND
     1    13    14    1
     2    14     7    1
     3     7     8    1
     4     8     9    1
     5     9    10    1
     6    10     1    1
     7     1     2   ar
     8     2     3   ar
     9     3    15    1
    10    15    16    1
    11    16    17    1
    12    17    18    1
    13    18    19    1
    14    19    20    2
    15    19    21   am
    16    21    23    1
    17    23    24    1
    18    24    25    1
    19    25    26   ar
    20    26    27   ar
    21    27    28   ar
    22    28    31    1
    23    31    32    3
    24    28    29   ar
    25    29    30   ar
    26     3     4   ar
    27     4     5   ar
    28     5    33    1
    29    33    34    1
    30    33    35    1
    31    33    36    1
    32     5     6   ar
    33    10    11    1
    34    11    12    1
    35    12     7    1
    36     6     1   ar
    37    18    15    1
    38    30    25   ar
    39    21    22    1
@<TRIPOS>MOLECULE
*****
 36 39 0 0 0
SMALL
GASTEIGER

@<TRIPOS>ATOM
      1 C          62.6237   89.6992   11.5806 C.ar    1  UNL1        0.1362
      2 C          63.0473   88.4224   10.9173 C.ar    1  UNL1        0.0686
      3 C          62.0839   87.2777   10.8095 C.ar    1  UNL1        0.1364
      4 N          60.6969   87.4099   11.3652 N.ar    1  UNL1       -0.2083
      5 C          60.2734   88.6868   12.0286 C.ar    1  UNL1        0.2374
      6 N          61.2368   89.8315   12.1363 N.ar    1  UNL1       -0.2083
      7 N          65.5139   93.1332   11.9038 N.3     1  UNL1       -0.2698
      8 C          64.8752   92.8120   10.5851 C.3     1  UNL1        0.0939
      9 C          63.9118   91.6674   10.4774 C.3     1  UNL1        0.1095
     10 N          63.5871   90.8439   11.6884 N.pl3   1  UNL1       -0.2903
     11 C          64.2258   91.1651   13.0070 C.3     1  UNL1        0.1095
     12 C          65.1892   92.3097   13.1147 C.3     1  UNL1        0.0939
     13 C          66.1224   95.6142   11.4299 C.3     1  UNL1        0.0188
     14 C          66.4773   94.2779   12.0115 C.3     1  UNL1        0.0722
     15 N          62.5075   86.0008   10.1461 N.pl3   1  UNL1       -0.2867
     16 C          62.6525   85.5408    8.7258 C.3     1  UNL1        0.0948
     17 C          63.1065   84.1949    9.2080 C.3     1  UNL1        0.0506
     18 C          62.9615   84.6549   10.6283 C.3     1  UNL1        0.1525
     19 C          63.1801   84.0285   11.9736 C.2     1  UNL1        0.2406
     20 O          62.3453   82.8577   12.4003 O.2     1  UNL1       -0.2733
     21 N          64.2335   84.5730   12.8923 N.am    1  UNL1       -0.3027
     22 H          64.7815   85.3415   12.6122 H       1  UNL1        0.1495
     23 C          64.4521   83.9467   14.2376 C.3     1  UNL1        0.0942
     24 C          63.7427   84.4904   15.4421 C.3     1  UNL1        0.0492
     25 C          63.6873   85.9712   15.6750 C.ar    1  UNL1       -0.0013
     26 C          64.3377   86.9085   14.7012 C.ar    1  UNL1       -0.0004
     27 C          64.2822   88.3893   14.9341 C.ar    1  UNL1        0.0293
     28 C          63.5764   88.9328   16.1409 C.ar    1  UNL1        0.1491
     29 N          62.9259   87.9954   17.1148 N.ar    1  UNL1       -0.2339
     30 C          62.9814   86.5147   16.8818 C.ar    1  UNL1        0.0954
     31 C          63.5209   90.4135   16.3738 C.1     1  UNL1        0.1198
     32 N          63.4654   91.8942   16.6067 N.1     1  UNL1       -0.1893
     33 C          58.8863   88.8191   12.5844 C.3     1  UNL1        0.4524
     34 F          57.4994   88.9513   13.1400 F       1  UNL1       -0.1632
     35 F          58.3277   88.2004   11.3373 F       1  UNL1       -0.1632
     36 F          59.4449   89.4378   13.8314 F       1  UNL1       -0.1632
@<TRIPOS>BOND
     1    13    14    1
     2    14     7    1
     3     7     8    1
     4     8     9    1
     5     9    10    1
     6    10     1    1
     7     1     2   ar
     8     2     3   ar
     9     3    15    1
    10    15    16    1
    11    16    17    1
    12    17    18    1
    13    18    19    1
    14    19    20    2
    15    19    21   am
    16    21    23    1
    17    23    24    1
    18    24    25    1
    19    25    26   ar
    20    26    27   ar
    21    27    28   ar
    22    28    31    1
    23    31    32    3
    24    28    29   ar
    25    29    30   ar
    26     3     4   ar
    27     4     5   ar
    28     5    33    1
    29    33    34    1
    30    33    35    1
    31    33    36    1
    32     5     6   ar
    33    10    11    1
    34    11    12    1
    35    12     7    1
    36     6     1   ar
    37    18    15    1
    38    30    25   ar
    39    21    22    1
@<TRIPOS>MOLECULE
*****
 36 39 0 0 0
SMALL
GASTEIGER

@<TRIPOS>ATOM
      1 C          64.1583   88.3562   14.6888 C.ar    1  UNL1        0.1362
      2 C          64.3099   87.0425   13.9809 C.ar    1  UNL1        0.0686
      3 C          63.9516   85.7664   14.6831 C.ar    1  UNL1        0.1364
      4 N          63.4415   85.8040   16.0932 N.ar    1  UNL1       -0.2083
      5 C          63.2899   87.1177   16.8011 C.ar    1  UNL1        0.2374
      6 N          63.6483   88.3938   16.0989 N.ar    1  UNL1       -0.2083
      7 N          65.2334   92.1846   12.5822 N.3     1  UNL1       -0.2698
      8 C          64.1116   91.3336   12.0652 C.3     1  UNL1        0.0939
      9 C          63.7533   90.0574   12.7674 C.3     1  UNL1        0.1095
     10 N          64.5167   89.6323   13.9866 N.pl3   1  UNL1       -0.2903
     11 C          65.6384   90.4834   14.5036 C.3     1  UNL1        0.1095
     12 C          65.9968   91.7595   13.8014 C.3     1  UNL1        0.0939
     13 C          66.1090   93.4226   10.4726 C.3     1  UNL1        0.0188
     14 C          65.5918   93.4607   11.8800 C.3     1  UNL1        0.0722
     15 N          64.1032   84.4527   13.9751 N.pl3   1  UNL1       -0.2867
     16 C          64.7353   83.1341   14.3098 C.3     1  UNL1        0.0948
     17 C          64.3177   82.5948   12.9739 C.3     1  UNL1        0.0506
     18 C          63.6856   83.9134   12.6392 C.3     1  UNL1        0.1525
     19 C          62.9434   84.4643   11.4579 C.2     1  UNL1        0.2406
     20 O          61.7693   85.3740   11.6675 O.2     1  UNL1       -0.2733
     21 N          63.3753   84.1056   10.0669 N.am    1  UNL1       -0.3027
     22 H          64.1459   83.5086    9.9293 H       1  UNL1        0.1495
     23 C          62.6331   84.6566    8.8856 C.3     1  UNL1        0.0942
     24 C          62.8251   86.0880    8.4803 C.3     1  UNL1        0.0492
     25 C          61.9842   87.1630    9.1027 C.ar    1  UNL1       -0.0013
     26 C          62.6383   88.3605    9.7256 C.ar    1  UNL1       -0.0004
     27 C          61.7973   89.4355   10.3480 C.ar    1  UNL1        0.0293
     28 C          60.3024   89.3129   10.3474 C.ar    1  UNL1        0.1491
     29 N          59.6483   88.1153    9.7244 N.ar    1  UNL1       -0.2339
     30 C          60.4892   87.0404    9.1021 C.ar    1  UNL1        0.0954
     31 C          59.4615   90.3878   10.9698 C.1     1  UNL1        0.1198
     32 N          58.6205   91.4627   11.5921 N.1     1  UNL1       -0.1893
     33 C          62.7798   87.1553   18.2113 C.3     1  UNL1        0.4524
     34 F          62.2698   87.1930   19.6214 F       1  UNL1       -0.1632
     35 F          63.2148   88.5858   18.3304 F       1  UNL1       -0.1632
     36 F          62.3448   85.7247   18.0922 F       1  UNL1       -0.1632
@<TRIPOS>BOND
     1    13    14    1
     2    14     7    1
     3     7     8    1
     4     8     9    1
     5     9    10    1
     6    10     1    1
     7     1     2   ar
     8     2     3   ar
     9     3    15    1
    10    15    16    1
    11    16    17    1
    12    17    18    1
    13    18    19    1
    14    19    20    2
    15    19    21   am
    16    21    23    1
    17    23    24    1
    18    24    25    1
    19    25    26   ar
    20    26    27   ar
    21    27    28   ar
    22    28    31    1
    23    31    32    3
    24    28    29   ar
    25    29    30   ar
    26     3     4   ar
    27     4     5   ar
    28     5    33    1
    29    33    34    1
    30    33    35    1
    31    33    36    1
    32     5     6   ar
    33    10    11    1
    34    11    12    1
    35    12     7    1
    36     6     1   ar
    37    18    15    1
    38    30    25   ar
    39    21    22    1
@<TRIPOS>MOLECULE
*****
 36 39 0 0 0
SMALL
GASTEIGER

@<TRIPOS>ATOM
      1 C          62.0377   87.5701   11.1899 C.ar    1  UNL1        0.1362
      2 C          63.0819   88.6457   11.1371 C.ar    1  UNL1        0.0686
      3 C          62.6942   90.0786   11.3524 C.ar    1  UNL1        0.1364
      4 N          61.2623   90.4360   11.6205 N.ar    1  UNL1       -0.2083
      5 C          60.2181   89.3604   11.6732 C.ar    1  UNL1        0.2374
      6 N          60.6058   87.9275   11.4579 N.ar    1  UNL1       -0.2083
      7 N          63.2009   83.2713   10.5440 N.3     1  UNL1       -0.2698
      8 C          63.2057   84.2309    9.3911 C.3     1  UNL1        0.0939
      9 C          62.8180   85.6639    9.6064 C.3     1  UNL1        0.1095
     10 N          62.4255   86.1372   10.9746 N.pl3   1  UNL1       -0.2903
     11 C          62.4207   85.1776   12.1274 C.3     1  UNL1        0.1095
     12 C          62.8084   83.7447   11.9121 C.3     1  UNL1        0.0939
     13 C          63.1710   80.7916   11.3184 C.3     1  UNL1        0.0188
     14 C          63.5887   81.8384   10.3287 C.3     1  UNL1        0.0722
     15 N          63.7384   91.1542   11.2996 N.pl3   1  UNL1       -0.2867
     16 C          64.3136   92.0221   10.2198 C.3     1  UNL1        0.0948
     17 C          65.2152   92.6753   11.2250 C.3     1  UNL1        0.0506
     18 C          64.6400   91.8075   12.3048 C.3     1  UNL1        0.1525
     19 C          64.8707   91.6557   13.7792 C.2     1  UNL1        0.2406
     20 O          66.2246   91.9389   14.3595 O.2     1  UNL1       -0.2733
     21 N          63.7475   91.2208   14.6733 N.am    1  UNL1       -0.3027
     22 H          62.8589   91.0349   14.2924 H       1  UNL1        0.1495
     23 C          63.9783   91.0690   16.1476 C.3     1  UNL1        0.0942
     24 C          63.2158   90.0364   16.9237 C.3     1  UNL1        0.0492
     25 C          63.3471   88.5845   16.5705 C.ar    1  UNL1       -0.0013
     26 C          62.8311   87.5346   17.5094 C.ar    1  UNL1       -0.0004
     27 C          62.9624   86.0827   17.1562 C.ar    1  UNL1        0.0293
     28 C          63.6097   85.6807   15.8641 C.ar    1  UNL1        0.1491
     29 N          64.1257   86.7306   14.9253 N.ar    1  UNL1       -0.2339
     30 C          63.9944   88.1825   15.2784 C.ar    1  UNL1        0.0954
     31 C          63.7410   84.2288   15.5109 C.1     1  UNL1        0.1198
     32 N          63.8723   82.7769   15.1577 N.1     1  UNL1       -0.1893
     33 C          58.7861   89.7178   11.9413 C.3     1  UNL1        0.4524
     34 F          57.3542   90.0752   12.2094 F       1  UNL1       -0.1632
     35 F          58.9750   91.0177   11.2171 F       1  UNL1       -0.1632
     36 F          58.5973   88.4179   12.6655 F       1  UNL1       -0.1632
@<TRIPOS>BOND
     1    13    14    1
     2    14     7    1
     3     7     8    1
     4     8     9    1
     5     9    10    1
     6    10     1    1
     7     1     2   ar
     8     2     3   ar
     9     3    15    1
    10    15    16    1
    11    16    17    1
    12    17    18    1
    13    18    19    1
    14    19    20    2
    15    19    21   am
    16    21    23    1
    17    23    24    1
    18    24    25    1
    19    25    26   ar
    20    26    27   ar
    21    27    28   ar
    22    28    31    1
    23    31    32    3
    24    28    29   ar
    25    29    30   ar
    26     3     4   ar
    27     4     5   ar
    28     5    33    1
    29    33    34    1
    30    33    35    1
    31    33    36    1
    32     5     6   ar
    33    10    11    1
    34    11    12    1
    35    12     7    1
    36     6     1   ar
    37    18    15    1
    38    30    25   ar
    39    21    22    1
@<TRIPOS>MOLECULE
*****
 36 39 0 0 0
SMALL
GASTEIGER

@<TRIPOS>ATOM
      1 C          64.1648   91.2272   12.1172 C.ar    1  UNL1        0.1362
      2 C          64.1289   90.7542   13.5402 C.ar    1  UNL1        0.0686
      3 C          63.3753   89.5075   13.8975 C.ar    1  UNL1        0.1364
      4 N          62.6575   88.7337   12.8317 N.ar    1  UNL1       -0.2083
      5 C          62.6933   89.2066   11.4087 C.ar    1  UNL1        0.2374
      6 N          63.4470   90.4533   11.0514 N.ar    1  UNL1       -0.2083
      7 N          66.4258   94.9674   11.0455 N.3     1  UNL1       -0.2698
      8 C          65.6610   94.2250    9.9901 C.3     1  UNL1        0.0939
      9 C          64.9073   92.9782   10.3473 C.3     1  UNL1        0.1095
     10 N          64.9185   92.4739   11.7599 N.pl3   1  UNL1       -0.2903
     11 C          65.6833   93.2163   12.8153 C.3     1  UNL1        0.1095
     12 C          66.4369   94.4631   12.4581 C.3     1  UNL1        0.0939
     13 C          67.0766   96.7820    9.3037 C.3     1  UNL1        0.0188
     14 C          67.1794   96.2141   10.6882 C.3     1  UNL1        0.0722
     15 N          63.3395   89.0346   15.3206 N.pl3   1  UNL1       -0.2867
     16 C          63.0837   89.6844   16.6481 C.3     1  UNL1        0.0948
     17 C          63.2888   88.3657   17.3330 C.3     1  UNL1        0.0506
     18 C          63.5446   87.7159   16.0055 C.3     1  UNL1        0.1525
     19 C          63.8704   86.3241   15.5511 C.2     1  UNL1        0.2406
     20 O          65.2434   86.0047   15.0382 O.2     1  UNL1       -0.2733
     21 N          62.8233   85.2516   15.6096 N.am    1  UNL1       -0.3027
     22 H          61.9222   85.4612   15.9463 H       1  UNL1        0.1495
     23 C          63.1492   83.8597   15.1553 C.3     1  UNL1        0.0942
     24 C          64.1946   83.6400   14.1022 C.3     1  UNL1        0.0492
     25 C          63.8663   83.8787   12.6581 C.ar    1  UNL1       -0.0013
     26 C          64.5427   83.0695   11.5916 C.ar    1  UNL1       -0.0004
     27 C          64.2144   83.3082   10.1475 C.ar    1  UNL1        0.0293
     28 C          63.2097   84.3561    9.7700 C.ar    1  UNL1        0.1491
     29 N          62.5333   85.1654   10.8367 N.ar    1  UNL1       -0.2339
     30 C          62.8616   84.9266   12.2807 C.ar    1  UNL1        0.0954
     31 C          62.8814   84.5949    8.3260 C.1     1  UNL1        0.1198
     32 N          62.5532   84.8336    6.8821 N.1     1  UNL1       -0.1893
     33 C          61.9755   88.4328   10.3428 C.3     1  UNL1        0.4524
     34 F          61.2578   87.6590    9.2770 F       1  UNL1       -0.1632
     35 F          62.9570   88.9280    9.3223 F       1  UNL1       -0.1632
     36 F          60.9940   87.9375   11.3633 F       1  UNL1       -0.1632
@<TRIPOS>BOND
     1    13    14    1
     2    14     7    1
     3     7     8    1
     4     8     9    1
     5     9    10    1
     6    10     1    1
     7     1     2   ar
     8     2     3   ar
     9     3    15    1
    10    15    16    1
    11    16    17    1
    12    17    18    1
    13    18    19    1
    14    19    20    2
    15    19    21   am
    16    21    23    1
    17    23    24    1
    18    24    25    1
    19    25    26   ar
    20    26    27   ar
    21    27    28   ar
    22    28    31    1
    23    31    32    3
    24    28    29   ar
    25    29    30   ar
    26     3     4   ar
    27     4     5   ar
    28     5    33    1
    29    33    34    1
    30    33    35    1
    31    33    36    1
    32     5     6   ar
    33    10    11    1
    34    11    12    1
    35    12     7    1
    36     6     1   ar
    37    18    15    1
    38    30    25   ar
    39    21    22    1
@<TRIPOS>MOLECULE
*****
 36 39 0 0 0
SMALL
GASTEIGER

@<TRIPOS>ATOM
      1 C          62.9463   83.1368   12.2826 C.ar    1  UNL1        0.1362
      2 C          62.5833   84.2272   11.3188 C.ar    1  UNL1        0.0686
      3 C          62.6365   85.6616   11.7543 C.ar    1  UNL1        0.1364
      4 N          63.0526   86.0055   13.1538 N.ar    1  UNL1       -0.2083
      5 C          63.4156   84.9150   14.1177 C.ar    1  UNL1        0.2374
      6 N          63.3624   83.4807   13.6821 N.ar    1  UNL1       -0.2083
      7 N          62.7868   78.8336   10.9758 N.3     1  UNL1       -0.2698
      8 C          63.0735   79.9118    9.9732 C.3     1  UNL1        0.0939
      9 C          63.1266   81.3462   10.4088 C.3     1  UNL1        0.1095
     10 N          62.8931   81.7024   11.8470 N.pl3   1  UNL1       -0.2903
     11 C          62.6065   80.6242   12.8496 C.3     1  UNL1        0.1095
     12 C          62.5533   79.1898   12.4140 C.3     1  UNL1        0.0939
     13 C          63.9352   76.7628    9.9069 C.3     1  UNL1        0.0188
     14 C          62.7337   77.3993   10.5402 C.3     1  UNL1        0.0722
     15 N          62.2735   86.7521   10.7904 N.pl3   1  UNL1       -0.2867
     16 C          61.8574   86.7995    9.3500 C.3     1  UNL1        0.0948
     17 C          61.7601   88.2943    9.4273 C.3     1  UNL1        0.0506
     18 C          62.1761   88.2470   10.8677 C.3     1  UNL1        0.1525
     19 C          62.4015   89.2705   11.9408 C.2     1  UNL1        0.2406
     20 O          61.5648   90.5149   11.9779 O.2     1  UNL1       -0.2733
     21 N          63.4635   89.0496   12.9769 N.am    1  UNL1       -0.3027
     22 H          64.0126   88.2328   12.9525 H       1  UNL1        0.1495
     23 C          63.6888   90.0731   14.0500 C.3     1  UNL1        0.0942
     24 C          65.0409   90.7012   14.2152 C.3     1  UNL1        0.0492
     25 C          65.4305   91.8764   13.3684 C.ar    1  UNL1       -0.0013
     26 C          64.9906   91.9476   11.9362 C.ar    1  UNL1       -0.0004
     27 C          65.3802   93.1229   11.0894 C.ar    1  UNL1        0.0293
     28 C          66.2097   94.2270   11.6749 C.ar    1  UNL1        0.1491
     29 N          66.6496   94.1558   13.1073 N.ar    1  UNL1       -0.2339
     30 C          66.2600   92.9805   13.9540 C.ar    1  UNL1        0.0954
     31 C          66.5993   95.4022   10.8282 C.1     1  UNL1        0.1198
     32 N          66.9890   96.5774    9.9815 N.1     1  UNL1       -0.1893
     33 C          63.8317   85.2589   15.5172 C.3     1  UNL1        0.4524
     34 F          64.2479   85.6028   16.9167 F       1  UNL1       -0.1632
     35 F          65.1361   85.7883   14.9992 F       1  UNL1       -0.1632
     36 F          62.5273   84.7296   16.0352 F       1  UNL1       -0.1632
@<TRIPOS>BOND
     1    13    14    1
     2    14     7    1
     3     7     8    1
     4     8     9    1
     5     9    10    1
     6    10     1    1
     7     1     2   ar
     8     2     3   ar
     9     3    15    1
    10    15    16    1
    11    16    17    1
    12    17    18    1
    13    18    19    1
    14    19    20    2
    15    19    21   am
    16    21    23    1
    17    23    24    1
    18    24    25    1
    19    25    26   ar
    20    26    27   ar
    21    27    28   ar
    22    28    31    1
    23    31    32    3
    24    28    29   ar
    25    29    30   ar
    26     3     4   ar
    27     4     5   ar
    28     5    33    1
    29    33    34    1
    30    33    35    1
    31    33    36    1
    32     5     6   ar
    33    10    11    1
    34    11    12    1
    35    12     7    1
    36     6     1   ar
    37    18    15    1
    38    30    25   ar
    39    21    22    1
