@<TRIPOS>MOLECULE
*****
 36 40 0 0 0
SMALL
GASTEIGER

@<TRIPOS>ATOM
      1 C          66.7837   96.1476   11.2160 C.3     1  UNL1        0.0521
      2 C          66.3173   94.8570   11.8217 C.ar    1  UNL1        0.0611
      3 C          66.8010   94.4486   13.1816 C.ar    1  UNL1        0.0194
      4 C          66.3345   93.1580   13.7873 C.ar    1  UNL1        0.0587
      5 C          65.3844   92.2758   13.0331 C.ar    1  UNL1        0.0577
      6 C          64.7560   90.9565   13.3718 C.ar    1  UNL1        0.1046
      7 N          64.8653   90.0733   14.5792 N.ar    1  UNL1       -0.2223
      8 C          64.1024   88.7830   14.6361 C.ar    1  UNL1        0.2001
      9 N          63.2303   88.3760   13.4855 N.ar    1  UNL1       -0.2075
     10 C          63.1210   89.2593   12.2781 C.ar    1  UNL1        0.1510
     11 C          63.8839   90.5495   12.2212 C.ar    1  UNL1        0.1110
     12 N          63.9733   91.6173   11.1715 N.ar    1  UNL1       -0.3072
     13 C          63.2605   91.6179    9.8517 C.3     1  UNL1        0.1320
     14 C          64.9006   92.6842   11.6732 C.ar    1  UNL1        0.1451
     15 N          65.3671   93.9748   11.0675 N.ar    1  UNL1       -0.2325
     16 N          62.2489   88.8523   11.1275 N.pl3   1  UNL1       -0.2892
     17 C          62.6070   87.6514   10.3032 C.3     1  UNL1        0.1095
     18 C          61.7348   87.2444    9.1526 C.3     1  UNL1        0.0939
     19 N          60.5047   88.0383    8.8264 N.3     1  UNL1       -0.2695
     20 C          60.1467   89.2392    9.6508 C.3     1  UNL1        0.0939
     21 C          61.0188   89.6462   10.8013 C.3     1  UNL1        0.1095
     22 C          59.6326   87.6313    7.6759 C.3     1  UNL1        0.0769
     23 C          58.5303   88.5372    7.2131 C.3     1  UNL1        0.0437
     24 C          58.8329   89.6681    6.2753 C.ar    1  UNL1       -0.0184
     25 C          57.7265   90.5586    5.7925 C.ar    1  UNL1       -0.0018
     26 C          58.0290   91.6895    4.8547 C.ar    1  UNL1        0.0316
     27 C          59.4380   91.9299    4.3996 C.ar    1  UNL1        0.1674
     28 F          59.7406   93.0608    3.4618 F       1  UNL1       -0.2018
     29 C          60.5443   91.0394    4.8823 C.ar    1  UNL1        0.1671
     30 F          61.9532   91.2799    4.4272 F       1  UNL1       -0.2018
     31 C          60.2418   89.9086    5.8202 C.ar    1  UNL1        0.0277
     32 C          66.8183   92.7497   15.1472 C.2     1  UNL1        0.2429
     33 N          65.8798   92.7786   16.3170 N.am    1  UNL1       -0.3253
     34 O          68.2405   92.3125   15.3372 O.2     1  UNL1       -0.2704
     35 H          64.9463   93.0655   16.1922 H       1  UNL1        0.1453
     36 H          66.1973   92.5106   17.2095 H       1  UNL1        0.1453
@<TRIPOS>BOND
     1     1     2    1
     2     2     3   ar
     3     3     4   ar
     4     4    32    1
     5    32    33   am
     6    32    34    2
     7     4     5   ar
     8     5     6   ar
     9     6     7   ar
    10     7     8   ar
    11     8     9   ar
    12     9    10   ar
    13    10    16    1
    14    16    17    1
    15    17    18    1
    16    18    19    1
    17    19    22    1
    18    22    23    1
    19    23    24    1
    20    24    25   ar
    21    25    26   ar
    22    26    27   ar
    23    27    28    1
    24    27    29   ar
    25    29    30    1
    26    29    31   ar
    27    19    20    1
    28    20    21    1
    29    10    11   ar
    30    11    12   ar
    31    12    13    1
    32    12    14   ar
    33    14    15   ar
    34    15     2   ar
    35    14     5   ar
    36    11     6   ar
    37    21    16    1
    38    31    24   ar
    39    33    35    1
    40    33    36    1
@<TRIPOS>MOLECULE
*****
 36 40 0 0 0
SMALL
GASTEIGER

@<TRIPOS>ATOM
      1 C          58.6437   91.8425    4.9962 C.3     1  UNL1        0.0521
      2 C          59.5281   92.1918    3.8360 C.ar    1  UNL1        0.0611
      3 C          61.0071   91.9572    3.9230 C.ar    1  UNL1        0.0194
      4 C          61.8914   92.3065    2.7628 C.ar    1  UNL1        0.0587
      5 C          61.2967   92.8903    1.5156 C.ar    1  UNL1        0.0577
      6 C          61.9128   93.3301    0.2206 C.ar    1  UNL1        0.1046
      7 N          63.3320   93.3350   -0.2651 N.ar    1  UNL1       -0.2223
      8 C          63.6528   93.8462   -1.6383 C.ar    1  UNL1        0.2001
      9 N          62.5546   94.3526   -2.5257 N.ar    1  UNL1       -0.2075
     10 C          61.1355   94.3478   -2.0399 C.ar    1  UNL1        0.1510
     11 C          60.8146   93.8365   -0.6667 C.ar    1  UNL1        0.1110
     12 N          59.5198   93.7096    0.0798 N.ar    1  UNL1       -0.3072
     13 C          58.1649   94.0992   -0.4325 C.3     1  UNL1        0.1320
     14 C          59.8177   93.1248    1.4286 C.ar    1  UNL1        0.1451
     15 N          58.9334   92.7756    2.5888 N.ar    1  UNL1       -0.2325
     16 N          60.0373   94.8542   -2.9273 N.pl3   1  UNL1       -0.2892
     17 C          59.3326   93.9138   -3.8596 C.3     1  UNL1        0.1095
     18 C          58.2344   94.4202   -4.7470 C.3     1  UNL1        0.0939
     19 N          57.8408   95.8670   -4.7021 N.3     1  UNL1       -0.2695
     20 C          58.5455   96.8073   -3.7698 C.3     1  UNL1        0.0939
     21 C          59.6437   96.3009   -2.8824 C.3     1  UNL1        0.1095
     22 C          56.7426   96.3734   -5.5894 C.3     1  UNL1        0.0769
     23 C          55.4894   95.5681   -5.7658 C.3     1  UNL1        0.0437
     24 C          54.3075   95.8156   -4.8759 C.ar    1  UNL1       -0.0184
     25 C          52.9982   96.2439   -5.4698 C.ar    1  UNL1       -0.0018
     26 C          51.8163   96.4913   -4.5799 C.ar    1  UNL1        0.0316
     27 C          51.9436   96.3105   -3.0962 C.ar    1  UNL1        0.1674
     28 F          50.7617   96.5579   -2.2064 F       1  UNL1       -0.2018
     29 C          53.2528   95.8822   -2.5025 C.ar    1  UNL1        0.1671
     30 F          53.3801   95.7014   -1.0189 F       1  UNL1       -0.2018
     31 C          54.4348   95.6348   -3.3924 C.ar    1  UNL1        0.0277
     32 C          63.3704   92.0719    2.8499 C.2     1  UNL1        0.2429
     33 N          64.3266   93.1578    2.4540 N.am    1  UNL1       -0.3253
     34 O          63.8932   90.7516    3.3328 O.2     1  UNL1       -0.2704
     35 H          63.9834   94.0244    2.1371 H       1  UNL1        0.1453
     36 H          65.2973   93.0039    2.5112 H       1  UNL1        0.1453
@<TRIPOS>BOND
     1     1     2    1
     2     2     3   ar
     3     3     4   ar
     4     4    32    1
     5    32    33   am
     6    32    34    2
     7     4     5   ar
     8     5     6   ar
     9     6     7   ar
    10     7     8   ar
    11     8     9   ar
    12     9    10   ar
    13    10    16    1
    14    16    17    1
    15    17    18    1
    16    18    19    1
    17    19    22    1
    18    22    23    1
    19    23    24    1
    20    24    25   ar
    21    25    26   ar
    22    26    27   ar
    23    27    28    1
    24    27    29   ar
    25    29    30    1
    26    29    31   ar
    27    19    20    1
    28    20    21    1
    29    10    11   ar
    30    11    12   ar
    31    12    13    1
    32    12    14   ar
    33    14    15   ar
    34    15     2   ar
    35    14     5   ar
    36    11     6   ar
    37    21    16    1
    38    31    24   ar
    39    33    35    1
    40    33    36    1
@<TRIPOS>MOLECULE
*****
 36 40 0 0 0
SMALL
GASTEIGER

@<TRIPOS>ATOM
      1 C          60.6536   92.0128    3.6235 C.3     1  UNL1        0.0521
      2 C          61.3372   92.6907    2.4732 C.ar    1  UNL1        0.0611
      3 C          62.8035   92.9979    2.5476 C.ar    1  UNL1        0.0194
      4 C          63.4871   93.6758    1.3972 C.ar    1  UNL1        0.0587
      5 C          62.7044   94.0464    0.1725 C.ar    1  UNL1        0.0577
      6 C          63.1031   94.7171   -1.1086 C.ar    1  UNL1        0.1046
      7 N          64.4193   95.2439   -1.5983 N.ar    1  UNL1       -0.2223
      8 C          64.5156   95.8781   -2.9542 C.ar    1  UNL1        0.2001
      9 N          63.2957   95.9853   -3.8204 N.ar    1  UNL1       -0.2075
     10 C          61.9795   95.4585   -3.3307 C.ar    1  UNL1        0.1510
     11 C          61.8831   94.8243   -1.9748 C.ar    1  UNL1        0.1110
     12 N          60.7305   94.2200   -1.2290 N.ar    1  UNL1       -0.3072
     13 C          59.3183   94.1148   -1.7235 C.3     1  UNL1        0.1320
     14 C          61.2381   93.7392    0.0981 C.ar    1  UNL1        0.1451
     15 N          60.5545   93.0613    1.2485 N.ar    1  UNL1       -0.2325
     16 N          60.7595   95.5657   -4.1969 N.pl3   1  UNL1       -0.2892
     17 C          60.5054   94.5431   -5.2644 C.3     1  UNL1        0.1095
     18 C          59.2855   94.6503   -6.1306 C.3     1  UNL1        0.0939
     19 N          58.3197   95.7802   -5.9293 N.3     1  UNL1       -0.2695
     20 C          58.5739   96.8029   -4.8618 C.3     1  UNL1        0.0939
     21 C          59.7938   96.6956   -3.9956 C.3     1  UNL1        0.1095
     22 C          57.0998   95.8875   -6.7955 C.3     1  UNL1        0.0769
     23 C          55.9302   94.9784   -6.5597 C.3     1  UNL1        0.0437
     24 C          55.9459   94.0200   -5.4059 C.ar    1  UNL1       -0.0184
     25 C          56.1225   92.5510   -5.6535 C.ar    1  UNL1       -0.0018
     26 C          56.1382   91.5926   -4.4998 C.ar    1  UNL1        0.0316
     27 C          55.9774   92.1031   -3.0984 C.ar    1  UNL1        0.1674
     28 F          55.9931   91.1446   -1.9447 F       1  UNL1       -0.2018
     29 C          55.8009   93.5719   -2.8509 C.ar    1  UNL1        0.1671
     30 F          55.6401   94.0823   -1.4496 F       1  UNL1       -0.2018
     31 C          55.7851   94.5304   -4.0047 C.ar    1  UNL1        0.0277
     32 C          64.9535   93.9830    1.4717 C.2     1  UNL1        0.2429
     33 N          65.9297   93.1809    0.6632 N.am    1  UNL1       -0.3253
     34 O          65.4434   95.0922    2.3545 O.2     1  UNL1       -0.2704
     35 H          65.6081   92.4529    0.0838 H       1  UNL1        0.1453
     36 H          66.8921   93.3825    0.7121 H       1  UNL1        0.1453
@<TRIPOS>BOND
     1     1     2    1
     2     2     3   ar
     3     3     4   ar
     4     4    32    1
     5    32    33   am
     6    32    34    2
     7     4     5   ar
     8     5     6   ar
     9     6     7   ar
    10     7     8   ar
    11     8     9   ar
    12     9    10   ar
    13    10    16    1
    14    16    17    1
    15    17    18    1
    16    18    19    1
    17    19    22    1
    18    22    23    1
    19    23    24    1
    20    24    25   ar
    21    25    26   ar
    22    26    27   ar
    23    27    28    1
    24    27    29   ar
    25    29    30    1
    26    29    31   ar
    27    19    20    1
    28    20    21    1
    29    10    11   ar
    30    11    12   ar
    31    12    13    1
    32    12    14   ar
    33    14    15   ar
    34    15     2   ar
    35    14     5   ar
    36    11     6   ar
    37    21    16    1
    38    31    24   ar
    39    33    35    1
    40    33    36    1
@<TRIPOS>MOLECULE
*****
 36 40 0 0 0
SMALL
GASTEIGER

@<TRIPOS>ATOM
      1 C          62.9746   80.6983   12.8311 C.3     1  UNL1        0.0521
      2 C          63.0923   82.1925   12.8897 C.ar    1  UNL1        0.0611
      3 C          63.8859   82.8399   13.9857 C.ar    1  UNL1        0.0194
      4 C          64.0037   84.3341   14.0443 C.ar    1  UNL1        0.0587
      5 C          63.3279   85.1810   13.0070 C.ar    1  UNL1        0.0577
      6 C          63.2667   86.6665   12.8082 C.ar    1  UNL1        0.1046
      7 N          63.8607   87.8076   13.5796 N.ar    1  UNL1       -0.2223
      8 C          63.6232   89.2195   13.1322 C.ar    1  UNL1        0.2001
      9 N          62.7918   89.4902   11.9134 N.ar    1  UNL1       -0.2075
     10 C          62.1979   88.3491   11.1420 C.ar    1  UNL1        0.1510
     11 C          62.4354   86.9373   11.5894 C.ar    1  UNL1        0.1110
     12 N          61.9828   85.6190   11.0349 N.ar    1  UNL1       -0.3072
     13 C          61.1285   85.4211    9.8179 C.3     1  UNL1        0.1320
     14 C          62.5344   84.5336   11.9110 C.ar    1  UNL1        0.1451
     15 N          62.4166   83.0394   11.8524 N.ar    1  UNL1       -0.2325
     16 N          61.3666   88.6198    9.9231 N.pl3   1  UNL1       -0.2892
     17 C          60.6071   89.9078    9.8043 C.3     1  UNL1        0.1095
     18 C          59.7757   90.1786    8.5855 C.3     1  UNL1        0.0939
     19 N          59.7039   89.1613    7.4855 N.3     1  UNL1       -0.2695
     20 C          60.4634   87.8733    7.6043 C.3     1  UNL1        0.0939
     21 C          61.2947   87.6026    8.8232 C.3     1  UNL1        0.1095
     22 C          58.8725   89.4321    6.2667 C.3     1  UNL1        0.0769
     23 C          58.7026   90.8378    5.7718 C.3     1  UNL1        0.0437
     24 C          59.6565   91.3965    4.7579 C.ar    1  UNL1       -0.0184
     25 C          59.1985   92.4586    3.8027 C.ar    1  UNL1       -0.0018
     26 C          60.1524   93.0172    2.7888 C.ar    1  UNL1        0.0316
     27 C          61.5642   92.5138    2.7300 C.ar    1  UNL1        0.1674
     28 F          62.5181   93.0724    1.7161 F       1  UNL1       -0.2018
     29 C          62.0221   91.4517    3.6852 C.ar    1  UNL1        0.1671
     30 F          63.4339   90.9483    3.6264 F       1  UNL1       -0.2018
     31 C          61.0682   90.8931    4.6991 C.ar    1  UNL1        0.0277
     32 C          64.7973   84.9815   15.1404 C.2     1  UNL1        0.2429
     33 N          66.2594   85.2550   14.9466 N.am    1  UNL1       -0.3253
     34 O          64.1287   85.3552   16.4300 O.2     1  UNL1       -0.2704
     35 H          66.6981   85.0096   14.1001 H       1  UNL1        0.1453
     36 H          66.7802   85.6799   15.6659 H       1  UNL1        0.1453
@<TRIPOS>BOND
     1     1     2    1
     2     2     3   ar
     3     3     4   ar
     4     4    32    1
     5    32    33   am
     6    32    34    2
     7     4     5   ar
     8     5     6   ar
     9     6     7   ar
    10     7     8   ar
    11     8     9   ar
    12     9    10   ar
    13    10    16    1
    14    16    17    1
    15    17    18    1
    16    18    19    1
    17    19    22    1
    18    22    23    1
    19    23    24    1
    20    24    25   ar
    21    25    26   ar
    22    26    27   ar
    23    27    28    1
    24    27    29   ar
    25    29    30    1
    26    29    31   ar
    27    19    20    1
    28    20    21    1
    29    10    11   ar
    30    11    12   ar
    31    12    13    1
    32    12    14   ar
    33    14    15   ar
    34    15     2   ar
    35    14     5   ar
    36    11     6   ar
    37    21    16    1
    38    31    24   ar
    39    33    35    1
    40    33    36    1
@<TRIPOS>MOLECULE
*****
 36 40 0 0 0
SMALL
GASTEIGER

@<TRIPOS>ATOM
      1 C          65.2700   91.8059   15.1187 C.3     1  UNL1        0.0521
      2 C          64.6907   90.5848   14.4679 C.ar    1  UNL1        0.0611
      3 C          64.9407   89.2294   15.0599 C.ar    1  UNL1        0.0194
      4 C          64.3615   88.0083   14.4092 C.ar    1  UNL1        0.0587
      5 C          63.5323   88.1426   13.1664 C.ar    1  UNL1        0.0577
      6 C          62.8362   87.1269   12.3097 C.ar    1  UNL1        0.1046
      7 N          62.7339   85.6336   12.4059 N.ar    1  UNL1       -0.2223
      8 C          61.9514   84.8679   11.3806 C.ar    1  UNL1        0.2001
      9 N          61.2711   85.5956   10.2591 N.ar    1  UNL1       -0.2075
     10 C          61.3735   87.0889   10.1629 C.ar    1  UNL1        0.1510
     11 C          62.1560   87.8546   11.1882 C.ar    1  UNL1        0.1110
     12 N          62.4317   89.3200   11.3519 N.ar    1  UNL1       -0.3072
     13 C          61.9427   90.4151   10.4510 C.3     1  UNL1        0.1320
     14 C          63.2823   89.4979   12.5745 C.ar    1  UNL1        0.1451
     15 N          63.8615   90.7190   13.2252 N.ar    1  UNL1       -0.2325
     16 N          60.6932   87.8166    9.0414 N.pl3   1  UNL1       -0.2892
     17 C          60.1884   87.0562    7.8511 C.3     1  UNL1        0.1095
     18 C          59.5081   87.7839    6.7296 C.3     1  UNL1        0.0939
     19 N          59.3328   89.2720    6.7984 N.3     1  UNL1       -0.2695
     20 C          59.8377   90.0324    7.9887 C.3     1  UNL1        0.0939
     21 C          60.5179   89.3047    9.1102 C.3     1  UNL1        0.1095
     22 C          58.6526   89.9997    5.6769 C.3     1  UNL1        0.0769
     23 C          58.9857   91.4366    5.4041 C.3     1  UNL1        0.0437
     24 C          60.0365   91.7837    4.3916 C.ar    1  UNL1       -0.0184
     25 C          59.7422   92.7919    3.3206 C.ar    1  UNL1       -0.0018
     26 C          60.7931   93.1390    2.3081 C.ar    1  UNL1        0.0316
     27 C          62.1383   92.4779    2.3666 C.ar    1  UNL1        0.1674
     28 F          63.1892   92.8250    1.3541 F       1  UNL1       -0.2018
     29 C          62.4326   91.4697    3.4375 C.ar    1  UNL1        0.1671
     30 F          63.7777   90.8086    3.4959 F       1  UNL1       -0.2018
     31 C          61.3817   91.1226    4.4500 C.ar    1  UNL1        0.0277
     32 C          64.6116   86.6529   15.0012 C.2     1  UNL1        0.2429
     33 N          63.4824   85.8867   15.6241 N.am    1  UNL1       -0.3253
     34 O          65.9906   86.0638   14.9703 O.2     1  UNL1       -0.2704
     35 H          62.5772   86.2733   15.6443 H       1  UNL1        0.1453
     36 H          63.6465   84.9971   16.0127 H       1  UNL1        0.1453
@<TRIPOS>BOND
     1     1     2    1
     2     2     3   ar
     3     3     4   ar
     4     4    32    1
     5    32    33   am
     6    32    34    2
     7     4     5   ar
     8     5     6   ar
     9     6     7   ar
    10     7     8   ar
    11     8     9   ar
    12     9    10   ar
    13    10    16    1
    14    16    17    1
    15    17    18    1
    16    18    19    1
    17    19    22    1
    18    22    23    1
    19    23    24    1
    20    24    25   ar
    21    25    26   ar
    22    26    27   ar
    23    27    28    1
    24    27    29   ar
    25    29    30    1
    26    29    31   ar
    27    19    20    1
    28    20    21    1
    29    10    11   ar
    30    11    12   ar
    31    12    13    1
    32    12    14   ar
    33    14    15   ar
    34    15     2   ar
    35    14     5   ar
    36    11     6   ar
    37    21    16    1
    38    31    24   ar
    39    33    35    1
    40    33    36    1
@<TRIPOS>MOLECULE
*****
 36 40 0 0 0
SMALL
GASTEIGER

@<TRIPOS>ATOM
      1 C          67.0317   96.2127   10.5074 C.3     1  UNL1        0.0521
      2 C          66.5321   95.0630   11.3312 C.ar    1  UNL1        0.0611
      3 C          67.0751   94.8372   12.7111 C.ar    1  UNL1        0.0194
      4 C          66.5755   93.6874   13.5348 C.ar    1  UNL1        0.0587
      5 C          65.5329   92.7635   12.9786 C.ar    1  UNL1        0.0577
      6 C          64.8540   91.5550   13.5520 C.ar    1  UNL1        0.1046
      7 N          64.9879   90.8618   14.8754 N.ar    1  UNL1       -0.2223
      8 C          64.1592   89.6476   15.1733 C.ar    1  UNL1        0.2001
      9 N          63.1965   89.1265   14.1477 N.ar    1  UNL1       -0.2075
     10 C          63.0626   89.8197   12.8243 C.ar    1  UNL1        0.1510
     11 C          63.8913   91.0340   12.5264 C.ar    1  UNL1        0.1110
     12 N          63.9754   91.9204   11.3193 N.ar    1  UNL1       -0.3072
     13 C          63.1838   91.7651   10.0546 C.3     1  UNL1        0.1320
     14 C          64.9900   92.9893   11.5987 C.ar    1  UNL1        0.1451
     15 N          65.4895   94.1390   10.7750 N.ar    1  UNL1       -0.2325
     16 N          62.1000   89.2987   11.7987 N.pl3   1  UNL1       -0.2892
     17 C          62.6137   88.7153   10.5159 C.3     1  UNL1        0.1095
     18 C          61.6511   88.1942    9.4903 C.3     1  UNL1        0.0939
     19 N          60.1747   88.2566    9.7475 N.3     1  UNL1       -0.2695
     20 C          59.6609   88.8399   11.0303 C.3     1  UNL1        0.0939
     21 C          60.6235   89.3610   12.0559 C.3     1  UNL1        0.1095
     22 C          59.2120   87.7355    8.7219 C.3     1  UNL1        0.0769
     23 C          59.5331   86.4844    7.9593 C.3     1  UNL1        0.0437
     24 C          60.7821   85.7150    8.2721 C.ar    1  UNL1       -0.0184
     25 C          61.6628   85.2299    7.1589 C.ar    1  UNL1       -0.0018
     26 C          62.9119   84.4605    7.4718 C.ar    1  UNL1        0.0316
     27 C          63.2802   84.1762    8.8978 C.ar    1  UNL1        0.1674
     28 F          64.5292   83.4067    9.2107 F       1  UNL1       -0.2018
     29 C          62.3995   84.6612   10.0110 C.ar    1  UNL1        0.1671
     30 F          62.7679   84.3769   11.4369 F       1  UNL1       -0.2018
     31 C          61.1505   85.4307    9.6981 C.ar    1  UNL1        0.0277
     32 C          67.1186   93.4616   14.9148 C.2     1  UNL1        0.2429
     33 N          66.1796   93.2349   16.0624 N.am    1  UNL1       -0.3253
     34 O          68.6004   93.4626   15.1470 O.2     1  UNL1       -0.2704
     35 H          65.2070   93.2342   15.9099 H       1  UNL1        0.1453
     36 H          66.5360   93.0867   16.9681 H       1  UNL1        0.1453
@<TRIPOS>BOND
     1     1     2    1
     2     2     3   ar
     3     3     4   ar
     4     4    32    1
     5    32    33   am
     6    32    34    2
     7     4     5   ar
     8     5     6   ar
     9     6     7   ar
    10     7     8   ar
    11     8     9   ar
    12     9    10   ar
    13    10    16    1
    14    16    17    1
    15    17    18    1
    16    18    19    1
    17    19    22    1
    18    22    23    1
    19    23    24    1
    20    24    25   ar
    21    25    26   ar
    22    26    27   ar
    23    27    28    1
    24    27    29   ar
    25    29    30    1
    26    29    31   ar
    27    19    20    1
    28    20    21    1
    29    10    11   ar
    30    11    12   ar
    31    12    13    1
    32    12    14   ar
    33    14    15   ar
    34    15     2   ar
    35    14     5   ar
    36    11     6   ar
    37    21    16    1
    38    31    24   ar
    39    33    35    1
    40    33    36    1
