@<TRIPOS>MOLECULE
*****
 61 69 0 0 0
SMALL
GASTEIGER

@<TRIPOS>ATOM
      1 C          64.0955   89.4649   13.8034 C.ar    1  UNL1        0.0263
      2 C          63.8879   88.1900   13.0408 C.ar    1  UNL1       -0.0034
      3 C          63.3766   86.9689   13.7460 C.ar    1  UNL1       -0.0066
      4 C          63.0729   87.0225   15.2139 C.ar    1  UNL1        0.0470
      5 C          63.2805   88.2974   15.9767 C.ar    1  UNL1        0.0508
      6 C          63.7918   89.5185   15.2714 C.ar    1  UNL1        0.1368
      7 N          62.5843   85.6687   15.6360 N.pl3   1  UNL1       -0.3043
      8 C          62.1672   85.2744   17.0219 C.3     1  UNL1        0.1122
      9 C          62.5861   84.7782   14.4290 C.3     1  UNL1        0.1163
     10 C          62.2050   83.3394   14.2425 C.3     1  UNL1        0.2316
     11 O          61.9310   83.4935   15.7093 O.3     1  UNL1       -0.3727
     12 C          62.3137   82.7042   12.8880 C.3     1  UNL1        0.2097
     13 C          62.8034   83.5078   11.7199 C.3     1  UNL1        0.0719
     14 C          62.9120   82.8726   10.3654 C.2     1  UNL1       -0.0250
     15 C          63.4017   83.6762    9.1973 C.2     1  UNL1       -0.0132
     16 C          63.7827   85.1150    9.3837 C.3     1  UNL1        0.0985
     17 N          63.6740   85.7502   10.7382 N.3     1  UNL1       -0.2695
     18 C          63.9297   87.0885   11.3656 C.3     1  UNL1        0.0728
     19 C          63.5842   86.9913   12.8221 C.3     1  UNL1        0.0244
     20 C          63.0757   85.5818   13.2609 C.3     1  UNL1        0.0547
     21 C          63.1844   84.9466   11.9063 C.3     1  UNL1        0.0703
     22 H          62.1373   84.4008   15.9832 H       1  UNL1        0.2111
     23 C          66.5586   95.1029   10.6522 C.3     1  UNL1        0.1030
     24 O          67.7749   95.7579   11.2364 O.3     1  UNL1       -0.3854
     25 C          66.8079   94.1949   11.8197 C.3     1  UNL1        0.0297
     26 C          66.0205   92.9711   12.2455 C.3     1  UNL1        0.0196
     27 C          65.5681   93.7221   11.0284 C.3     1  UNL1        0.0722
     28 N          64.4953   93.6736    9.9811 N.3     1  UNL1       -0.2704
     29 C          63.3041   92.8484    9.5937 C.3     1  UNL1        0.0769
     30 C          62.5519   91.6326   10.0475 C.3     1  UNL1        0.0449
     31 C          62.5906   90.5950   11.1300 C.2     1  UNL1       -0.0053
     32 C          63.4022   90.2212   12.3349 C.2     1  UNL1        0.0680
     33 N          62.7904   88.9942   12.9433 N.2     1  UNL1       -0.2531
     34 C          61.6007   88.6096   12.1145 C.2     1  UNL1        0.0627
     35 C          60.6140   87.4864   12.2355 C.3     1  UNL1        0.0717
     36 C          59.5037   87.3526   11.2358 C.2     1  UNL1       -0.0198
     37 C          59.3803   88.3420   10.1151 C.2     1  UNL1       -0.0042
     38 C          60.3670   89.4652    9.9941 C.2     1  UNL1        0.0006
     39 C          61.4773   89.5990   10.9938 C.2     1  UNL1        0.0111
     40 C          64.6068   90.6860   13.0983 C.3     1  UNL1        0.1458
     41 C          65.6408   91.7721   13.0629 C.3     1  UNL1        0.0219
     42 C          65.4023   94.8424    9.7328 C.3     1  UNL1        0.0993
     43 H          68.0607   95.2665   12.0224 H       1  UNL1        0.2103
     44 C          67.1820   95.9671    8.2828 C.3     1  UNL1        0.0025
     45 C          66.7317   96.2385    9.6875 C.3     1  UNL1        0.0283
     46 C          65.5181   90.4504   14.2661 C.2     1  UNL1        0.3253
     47 O          66.0650   89.2214   14.9298 O.2     1  UNL1       -0.2494
     48 O          66.0776   91.6152   15.0278 O.3     1  UNL1       -0.4439
     49 C          67.5408   91.6645   15.3547 C.3     1  UNL1        0.2556
     50 O          63.9993   90.7934   16.0342 O.3     1  UNL1       -0.4717
     51 C          62.8663   91.3957   16.8109 C.3     1  UNL1        0.2525
     52 C          61.7289   81.9542   14.5655 C.2     1  UNL1        0.3466
     53 O          62.3120   80.8039   15.3315 O.2     1  UNL1       -0.2473
     54 O          60.3903   81.4877   14.0749 O.3     1  UNL1       -0.4427
     55 C          59.8232   80.1882   14.5644 C.3     1  UNL1        0.2557
     56 C          62.4223   82.0691   11.5335 C.3     1  UNL1        0.0089
     57 C          63.1333   81.4187   10.3839 C.3     1  UNL1        0.0005
     58 O          61.9327   81.2655   12.7016 O.3     1  UNL1       -0.4488
     59 C          62.9452   80.1846   12.9392 C.2     1  UNL1        0.3175
     60 C          62.6008   78.7555   12.6412 C.3     1  UNL1        0.1212
     61 O          64.3394   80.3537   13.4665 O.2     1  UNL1       -0.2501
@<TRIPOS>BOND
     1    44    45    1
     2    45    23    1
     3    23    24    1
     4    23    25    1
     5    26    25    1
     6    26    27    1
     7    27    28    1
     8    28    29    1
     9    29    30    1
    10    30    31    1
    11    31    32    2
    12    32    33    1
    13    33    34    2
    14    34    35    1
    15    35    36    1
    16    36    37    2
    17    37    38    1
    18    38    39    2
    19    32    40    1
    20    40    46    1
    21    46    47    2
    22    46    48    1
    23    48    49    1
    24    40     1    1
    25     1     2   ar
    26     2     3   ar
    27     3     4   ar
    28     4     5   ar
    29     5     6   ar
    30     6    50    1
    31    50    51    1
    32     4     7    1
    33     7     8    1
    34     9     7    1
    35     9    10    1
    36    10    11    1
    37    10    52    1
    38    52    53    2
    39    52    54    1
    40    54    55    1
    41    10    12    1
    42    12    58    1
    43    58    59    1
    44    59    60    1
    45    59    61    2
    46    12    13    1
    47    13    56    1
    48    56    57    1
    49    13    14    1
    50    14    15    2
    51    15    16    1
    52    16    17    1
    53    17    18    1
    54    18    19    1
    55    20    19    1
    56    20    21    1
    57    40    41    1
    58    28    42    1
    59    42    23    1
    60    41    26    1
    61    39    31    1
    62     6     1   ar
    63    20     9    1
    64    39    34    1
    65    20     3    1
    66    21    13    1
    67    21    17    1
    68    24    43    1
    69    11    22    1
@<TRIPOS>MOLECULE
*****
 61 69 0 0 0
SMALL
GASTEIGER

@<TRIPOS>ATOM
      1 C          62.6928   86.7808   11.4722 C.ar    1  UNL1        0.0263
      2 C          63.3511   88.1246   11.5757 C.ar    1  UNL1       -0.0034
      3 C          63.6460   88.7135   12.9233 C.ar    1  UNL1       -0.0066
      4 C          63.2825   87.9587   14.1675 C.ar    1  UNL1        0.0470
      5 C          62.6241   86.6148   14.0641 C.ar    1  UNL1        0.0508
      6 C          62.3292   86.0259   12.7164 C.ar    1  UNL1        0.1368
      7 N          63.6935   88.7866   15.3488 N.pl3   1  UNL1       -0.3043
      8 C          63.5178   88.4135   16.7910 C.3     1  UNL1        0.1122
      9 C          64.3111   90.0532   14.8348 C.3     1  UNL1        0.1163
     10 C          64.8964   91.2419   15.5379 C.3     1  UNL1        0.2316
     11 O          64.4954   90.4110   16.7207 O.3     1  UNL1       -0.3727
     12 C          65.4524   92.3854   14.7421 C.3     1  UNL1        0.2097
     13 C          65.4230   92.3402   13.2431 C.3     1  UNL1        0.0719
     14 C          65.9789   93.4837   12.4472 C.2     1  UNL1       -0.0250
     15 C          65.9496   93.4385   10.9482 C.2     1  UNL1       -0.0132
     16 C          65.3643   92.2498   10.2450 C.3     1  UNL1        0.0985
     17 N          64.8083   91.1064   11.0408 N.3     1  UNL1       -0.2695
     18 C          64.1577   89.7800   10.7815 C.3     1  UNL1        0.0728
     19 C          63.8536   89.1458   12.1065 C.3     1  UNL1        0.0244
     20 C          64.2817   90.0080   13.3358 C.3     1  UNL1        0.0547
     21 C          64.8377   91.1515   12.5398 C.3     1  UNL1        0.0703
     22 H          64.0897   89.5854   16.4132 H       1  UNL1        0.2111
     23 C          61.4373   83.9662    5.2846 C.3     1  UNL1        0.1030
     24 O          62.2515   82.7739    4.8782 O.3     1  UNL1       -0.3854
     25 C          62.3063   83.8185    6.4981 C.3     1  UNL1        0.0297
     26 C          62.3179   84.6646    7.7563 C.3     1  UNL1        0.0196
     27 C          61.3451   85.0158    6.6699 C.3     1  UNL1        0.0722
     28 N          60.2704   86.0183    6.3698 N.3     1  UNL1       -0.2704
     29 C          59.5967   87.2030    6.9964 C.3     1  UNL1        0.0769
     30 C          59.6393   88.0156    8.2564 C.3     1  UNL1        0.0449
     31 C          60.3782   88.0759    9.5605 C.2     1  UNL1       -0.0053
     32 C          61.4677   87.3556   10.2982 C.2     1  UNL1        0.0680
     33 N          61.6627   88.0386   11.6194 N.2     1  UNL1       -0.2531
     34 C          60.6938   89.1810   11.6982 C.2     1  UNL1        0.0627
     35 C          60.4319   90.2032   12.7642 C.3     1  UNL1        0.0717
     36 C          59.3761   91.2484   12.5578 C.2     1  UNL1       -0.0198
     37 C          58.5822   91.2715   11.2853 C.2     1  UNL1       -0.0042
     38 C          58.8442   90.2493   10.2193 C.2     1  UNL1        0.0006
     39 C          59.9000   89.2040   10.4257 C.2     1  UNL1        0.0111
     40 C          62.3979   86.1918   10.1246 C.3     1  UNL1        0.1458
     41 C          62.7337   85.1291    9.1206 C.3     1  UNL1        0.0219
     42 C          60.4193   85.0661    5.2203 C.3     1  UNL1        0.0993
     43 H          62.8776   82.5536    5.5857 H       1  UNL1        0.2103
     44 C          61.4212   84.3777    2.7194 C.3     1  UNL1        0.0025
     45 C          60.8510   83.6998    3.9298 C.3     1  UNL1        0.0283
     46 C          63.4973   85.3659   10.7238 C.2     1  UNL1        0.3253
     47 O          64.3352   85.4871   11.9621 O.2     1  UNL1       -0.2494
     48 O          63.9577   84.1160   10.0339 O.3     1  UNL1       -0.4439
     49 C          64.4144   82.9379   10.8424 C.3     1  UNL1        0.2556
     50 O          61.6708   84.6821   12.6129 O.3     1  UNL1       -0.4717
     51 C          62.0696   83.5776   13.5463 C.3     1  UNL1        0.2525
     52 C          65.3424   92.1420   16.6518 C.2     1  UNL1        0.3466
     53 O          66.6331   92.3187   17.3955 O.2     1  UNL1       -0.2473
     54 O          64.3846   93.1322   17.2453 O.3     1  UNL1       -0.4427
     55 C          62.9150   93.0114   16.9706 C.3     1  UNL1        0.2557
     56 C          66.0083   93.5288   13.9463 C.3     1  UNL1        0.0089
     57 C          66.3008   94.6722   13.0203 C.3     1  UNL1        0.0005
     58 O          66.0377   93.5740   15.4453 O.3     1  UNL1       -0.4488
     59 C          67.5247   93.6974   15.5988 C.2     1  UNL1        0.3175
     60 C          68.4217   92.5911   15.1281 C.3     1  UNL1        0.1212
     61 O          68.2782   94.8489   16.1959 O.2     1  UNL1       -0.2501
@<TRIPOS>BOND
     1    44    45    1
     2    45    23    1
     3    23    24    1
     4    23    25    1
     5    26    25    1
     6    26    27    1
     7    27    28    1
     8    28    29    1
     9    29    30    1
    10    30    31    1
    11    31    32    2
    12    32    33    1
    13    33    34    2
    14    34    35    1
    15    35    36    1
    16    36    37    2
    17    37    38    1
    18    38    39    2
    19    32    40    1
    20    40    46    1
    21    46    47    2
    22    46    48    1
    23    48    49    1
    24    40     1    1
    25     1     2   ar
    26     2     3   ar
    27     3     4   ar
    28     4     5   ar
    29     5     6   ar
    30     6    50    1
    31    50    51    1
    32     4     7    1
    33     7     8    1
    34     9     7    1
    35     9    10    1
    36    10    11    1
    37    10    52    1
    38    52    53    2
    39    52    54    1
    40    54    55    1
    41    10    12    1
    42    12    58    1
    43    58    59    1
    44    59    60    1
    45    59    61    2
    46    12    13    1
    47    13    56    1
    48    56    57    1
    49    13    14    1
    50    14    15    2
    51    15    16    1
    52    16    17    1
    53    17    18    1
    54    18    19    1
    55    20    19    1
    56    20    21    1
    57    40    41    1
    58    28    42    1
    59    42    23    1
    60    41    26    1
    61    39    31    1
    62     6     1   ar
    63    20     9    1
    64    39    34    1
    65    20     3    1
    66    21    13    1
    67    21    17    1
    68    24    43    1
    69    11    22    1
@<TRIPOS>MOLECULE
*****
 61 69 0 0 0
SMALL
GASTEIGER

@<TRIPOS>ATOM
      1 C          62.4610   87.4103   11.8055 C.ar    1  UNL1        0.0263
      2 C          63.2762   88.6680   11.8659 C.ar    1  UNL1       -0.0034
      3 C          63.5773   89.3038   13.1906 C.ar    1  UNL1       -0.0066
      4 C          63.0633   88.6820   14.4551 C.ar    1  UNL1        0.0470
      5 C          62.2481   87.4242   14.3949 C.ar    1  UNL1        0.0508
      6 C          61.9470   86.7884   13.0701 C.ar    1  UNL1        0.1368
      7 N          63.5173   89.5294   15.6064 N.pl3   1  UNL1       -0.3043
      8 C          63.2276   89.2758   17.0561 C.3     1  UNL1        0.1122
      9 C          64.3121   90.6751   15.0535 C.3     1  UNL1        0.1163
     10 C          65.0068   91.8274   15.7166 C.3     1  UNL1        0.2316
     11 O          64.4490   91.1308   16.9223 O.3     1  UNL1       -0.3727
     12 C          65.7385   92.8402   14.8867 C.3     1  UNL1        0.2097
     13 C          65.7756   92.7007   13.3936 C.3     1  UNL1        0.0719
     14 C          66.5074   93.7135   12.5637 C.2     1  UNL1       -0.0250
     15 C          66.5444   93.5741   11.0707 C.2     1  UNL1       -0.0132
     16 C          65.8497   92.4218   10.4076 C.3     1  UNL1        0.0985
     17 N          65.1180   91.4091   11.2375 N.3     1  UNL1       -0.2695
     18 C          64.3201   90.1574   11.0212 C.3     1  UNL1        0.0728
     19 C          63.8762   89.6532   12.3624 C.3     1  UNL1        0.0244
     20 C          64.3491   90.5357   13.5605 C.3     1  UNL1        0.0547
     21 C          65.0809   91.5485   12.7305 C.3     1  UNL1        0.0703
     22 H          63.9586   90.3421   16.6421 H       1  UNL1        0.2111
     23 C          60.9989   84.5995    5.6618 C.3     1  UNL1        0.1030
     24 O          60.1773   85.4052    4.6996 O.3     1  UNL1       -0.3854
     25 C          60.7817   85.8385    6.4787 C.3     1  UNL1        0.0297
     26 C          61.2762   86.1410    7.8798 C.3     1  UNL1        0.0196
     27 C          61.6282   84.8166    7.2699 C.3     1  UNL1        0.0722
     28 N          62.3776   83.5607    7.6035 N.3     1  UNL1       -0.2704
     29 C          63.1736   82.9610    8.7246 C.3     1  UNL1        0.0769
     30 C          63.6438   83.2981   10.1084 C.3     1  UNL1        0.0449
     31 C          63.5682   84.4143   11.1078 C.2     1  UNL1       -0.0053
     32 C          62.9821   85.7872   11.2548 C.2     1  UNL1        0.0680
     33 N          63.3534   86.3067   12.6121 N.2     1  UNL1       -0.2531
     34 C          64.1689   85.2549   13.3039 C.2     1  UNL1        0.0627
     35 C          64.8077   85.2111   14.6603 C.3     1  UNL1        0.0717
     36 C          65.5793   83.9976   15.0870 C.2     1  UNL1       -0.0198
     37 C          65.7121   82.8280   14.1573 C.2     1  UNL1       -0.0042
     38 C          65.0732   82.8718   12.8009 C.2     1  UNL1        0.0006
     39 C          64.3017   84.0853   12.3742 C.2     1  UNL1        0.0111
     40 C          62.1599   86.7745   10.4808 C.3     1  UNL1        0.1458
     41 C          61.4862   86.9142    9.1479 C.3     1  UNL1        0.0219
     42 C          61.7968   83.4605    6.2241 C.3     1  UNL1        0.0993
     43 H          59.9541   86.2593    5.1015 H       1  UNL1        0.2103
     44 C          61.3439   84.0843    3.1388 C.3     1  UNL1        0.0025
     45 C          60.9307   83.6402    4.5106 C.3     1  UNL1        0.0283
     46 C          61.5104   88.1265   10.4666 C.2     1  UNL1        0.3253
     47 O          61.6485   89.3398    9.5956 O.2     1  UNL1       -0.2494
     48 O          60.4760   88.4725   11.4964 O.3     1  UNL1       -0.4439
     49 C          59.8250   89.8238   11.4809 C.3     1  UNL1        0.2556
     50 O          61.1317   85.5307   13.0098 O.3     1  UNL1       -0.4717
     51 C          61.3008   84.4761   14.0630 C.3     1  UNL1        0.2525
     52 C          65.5078   92.7377   16.7984 C.2     1  UNL1        0.3466
     53 O          66.8456   92.9548   17.4411 O.2     1  UNL1       -0.2473
     54 O          64.5665   93.6929   17.4705 O.3     1  UNL1       -0.4427
     55 C          63.0899   93.5850   17.2299 C.3     1  UNL1        0.2557
     56 C          66.4703   93.8529   14.0568 C.3     1  UNL1        0.0089
     57 C          66.4718   95.0972   13.2190 C.3     1  UNL1        0.0005
     58 O          66.4332   93.9924   15.5498 O.3     1  UNL1       -0.4488
     59 C          67.9264   93.9861   15.6930 C.2     1  UNL1        0.3175
     60 C          68.7128   92.7721   15.2958 C.3     1  UNL1        0.1212
     61 O          68.7883   95.0990   16.2115 O.2     1  UNL1       -0.2501
@<TRIPOS>BOND
     1    44    45    1
     2    45    23    1
     3    23    24    1
     4    23    25    1
     5    26    25    1
     6    26    27    1
     7    27    28    1
     8    28    29    1
     9    29    30    1
    10    30    31    1
    11    31    32    2
    12    32    33    1
    13    33    34    2
    14    34    35    1
    15    35    36    1
    16    36    37    2
    17    37    38    1
    18    38    39    2
    19    32    40    1
    20    40    46    1
    21    46    47    2
    22    46    48    1
    23    48    49    1
    24    40     1    1
    25     1     2   ar
    26     2     3   ar
    27     3     4   ar
    28     4     5   ar
    29     5     6   ar
    30     6    50    1
    31    50    51    1
    32     4     7    1
    33     7     8    1
    34     9     7    1
    35     9    10    1
    36    10    11    1
    37    10    52    1
    38    52    53    2
    39    52    54    1
    40    54    55    1
    41    10    12    1
    42    12    58    1
    43    58    59    1
    44    59    60    1
    45    59    61    2
    46    12    13    1
    47    13    56    1
    48    56    57    1
    49    13    14    1
    50    14    15    2
    51    15    16    1
    52    16    17    1
    53    17    18    1
    54    18    19    1
    55    20    19    1
    56    20    21    1
    57    40    41    1
    58    28    42    1
    59    42    23    1
    60    41    26    1
    61    39    31    1
    62     6     1   ar
    63    20     9    1
    64    39    34    1
    65    20     3    1
    66    21    13    1
    67    21    17    1
    68    24    43    1
    69    11    22    1
