@<TRIPOS>MOLECULE
*****
 40 43 0 0 0
SMALL
GASTEIGER

@<TRIPOS>ATOM
      1 N          60.3829   91.3999    4.3262 N.3     1  UNL1       -0.2725
      2 C          59.0318   92.0094    4.5562 C.3     1  UNL1        0.0738
      3 C          58.3095   91.1682    5.5664 C.3     1  UNL1        0.0383
      4 C          59.2143   90.0387    5.9609 C.3     1  UNL1        0.0889
      5 C          60.4957   90.1819    5.1945 C.3     1  UNL1        0.0919
      6 C          63.5432   92.9523    1.5241 C.3     1  UNL1        0.1085
      7 O          65.0010   92.7696    1.2218 O.3     1  UNL1       -0.3826
      8 C          62.1397   93.4737    1.4343 C.3     1  UNL1        0.0326
      9 C          61.0862   92.9563    2.3684 C.3     1  UNL1        0.0187
     10 C          61.4363   91.9174    3.3921 C.3     1  UNL1        0.0577
     11 C          62.8398   91.3960    3.4819 C.3     1  UNL1        0.0187
     12 C          63.8933   91.9134    2.5478 C.3     1  UNL1        0.0326
     13 H          65.2552   93.3538    0.4903 H       1  UNL1        0.2107
     14 C          64.0118   95.8786   -1.8622 C.ar    1  UNL1        0.2250
     15 C          62.8408   94.9416   -1.8373 C.ar    1  UNL1        0.0575
     16 C          62.6846   93.9662   -0.7086 C.ar    1  UNL1        0.0043
     17 C          63.6994   93.9277    0.3953 C.ar    1  UNL1        0.0211
     18 C          64.8704   94.8647    0.3704 C.ar    1  UNL1        0.1000
     19 N          65.0266   95.8402   -0.7584 N.ar    1  UNL1       -0.2104
     20 C          65.3314   96.7343   -3.9302 C.3     1  UNL1        0.2542
     21 O          64.1680   96.8540   -2.9910 O.3     1  UNL1       -0.4561
     22 N          58.8939   88.9561    6.9485 N.am    1  UNL1       -0.3032
     23 C          59.7011   88.8252    8.2060 C.2     1  UNL1        0.2425
     24 O          60.8287   89.7769    8.4759 O.2     1  UNL1       -0.2733
     25 H          58.1539   88.3315    6.7713 H       1  UNL1        0.1495
     26 C          59.3807   87.7426    9.1936 C.3     1  UNL1        0.1759
     27 N          60.3324   86.5997    9.3887 N.am    1  UNL1       -0.2931
     28 C          61.3484   86.6495   10.4910 C.2     1  UNL1        0.2462
     29 O          61.4127   87.8421   11.3985 O.2     1  UNL1       -0.2701
     30 H          60.2902   85.8169    8.7931 H       1  UNL1        0.1502
     31 C          62.3001   85.5065   10.6861 C.ar    1  UNL1        0.0533
     32 C          62.9182   84.8340    9.4963 C.ar    1  UNL1        0.0045
     33 C          63.8699   83.6911    9.6913 C.ar    1  UNL1        0.0001
     34 C          64.2035   83.2207   11.0760 C.ar    1  UNL1        0.0039
     35 C          63.5853   83.8932   12.2658 C.ar    1  UNL1        0.0716
     36 C          62.6336   85.0362   12.0707 C.ar    1  UNL1        0.0084
     37 C          63.9188   83.4229   13.6506 C.3     1  UNL1        0.4186
     38 F          64.2523   82.9525   15.0353 F       1  UNL1       -0.1659
     39 F          63.9839   82.0088   13.1546 F       1  UNL1       -0.1659
     40 F          63.8536   84.8370   14.1466 F       1  UNL1       -0.1659
@<TRIPOS>BOND
     1    20    21    1
     2    21    14    1
     3    14    15   ar
     4    15    16   ar
     5    16    17   ar
     6    17     6    1
     7     6     7    1
     8     6     8    1
     9     8     9    1
    10     9    10    1
    11    10     1    1
    12     1     2    1
    13     2     3    1
    14     3     4    1
    15     4    22    1
    16    22    23   am
    17    23    24    2
    18    23    26    1
    19    26    27    1
    20    27    28   am
    21    28    29    2
    22    28    31    1
    23    31    32   ar
    24    32    33   ar
    25    33    34   ar
    26    34    35   ar
    27    35    37    1
    28    37    38    1
    29    37    39    1
    30    37    40    1
    31    35    36   ar
    32     4     5    1
    33    10    11    1
    34    11    12    1
    35    17    18   ar
    36    18    19   ar
    37    19    14   ar
    38    12     6    1
    39     5     1    1
    40    36    31   ar
    41     7    13    1
    42    22    25    1
    43    27    30    1
@<TRIPOS>MOLECULE
*****
 40 43 0 0 0
SMALL
GASTEIGER

@<TRIPOS>ATOM
      1 N          63.7120   87.7890   15.3610 N.3     1  UNL1       -0.2725
      2 C          63.0480   88.6372   16.4048 C.3     1  UNL1        0.0738
      3 C          63.6407   90.0131   16.3301 C.3     1  UNL1        0.0383
      4 C          64.6711   90.0152   15.2400 C.3     1  UNL1        0.0889
      5 C          64.7152   88.6408   14.6411 C.3     1  UNL1        0.0919
      6 C          62.8467   83.4511   14.5344 C.3     1  UNL1        0.1085
      7 O          62.3725   82.2182   15.2452 O.3     1  UNL1       -0.3826
      8 C          63.3321   84.3427   13.4301 C.3     1  UNL1        0.0326
      9 C          63.6205   85.7887   13.7057 C.3     1  UNL1        0.0187
     10 C          63.4236   86.3431   15.0854 C.3     1  UNL1        0.0577
     11 C          62.9382   85.4515   16.1897 C.3     1  UNL1        0.0187
     12 C          62.6497   84.0055   15.9142 C.3     1  UNL1        0.0326
     13 H          62.3413   81.4768   14.6206 H       1  UNL1        0.2107
     14 C          62.9436   80.5034   11.1356 C.ar    1  UNL1        0.2250
     15 C          63.2675   81.9466   10.8862 C.ar    1  UNL1        0.0575
     16 C          63.2352   82.9292   12.0192 C.ar    1  UNL1        0.0043
     17 C          62.8790   82.4685   13.4015 C.ar    1  UNL1        0.0211
     18 C          62.5551   81.0254   13.6509 C.ar    1  UNL1        0.1000
     19 N          62.5873   80.0428   12.5179 N.ar    1  UNL1       -0.2104
     20 C          62.7379   78.0636   10.2667 C.3     1  UNL1        0.2542
     21 O          62.9759   79.5209   10.0027 O.3     1  UNL1       -0.4561
     22 N          65.5101   91.1863   14.8222 N.am    1  UNL1       -0.3032
     23 C          65.7059   92.3410   15.7594 C.2     1  UNL1        0.2425
     24 O          65.0627   92.3246   17.1144 O.2     1  UNL1       -0.2733
     25 H          65.9323   91.1971   13.9329 H       1  UNL1        0.1495
     26 C          66.5450   93.5122   15.3416 C.3     1  UNL1        0.1759
     27 N          67.1661   93.5409   13.9766 N.am    1  UNL1       -0.2931
     28 C          66.3575   93.1467   12.7763 C.2     1  UNL1        0.2462
     29 O          64.9278   92.7238   12.9409 O.2     1  UNL1       -0.2701
     30 H          68.1045   93.8184   13.8684 H       1  UNL1        0.1502
     31 C          66.9786   93.1754   11.4112 C.ar    1  UNL1        0.0533
     32 C          67.7457   91.9873   10.9111 C.ar    1  UNL1        0.0045
     33 C          68.3668   92.0160    9.5461 C.ar    1  UNL1        0.0001
     34 C          68.2209   93.2328    8.6810 C.ar    1  UNL1        0.0039
     35 C          67.4538   94.4208    9.1811 C.ar    1  UNL1        0.0716
     36 C          66.8327   94.3921   10.5462 C.ar    1  UNL1        0.0084
     37 C          67.3079   95.6376    8.3161 C.3     1  UNL1        0.4186
     38 F          67.1619   96.8544    7.4512 F       1  UNL1       -0.1659
     39 F          66.9647   94.7645    7.1458 F       1  UNL1       -0.1659
     40 F          67.6511   96.5108    9.4866 F       1  UNL1       -0.1659
@<TRIPOS>BOND
     1    20    21    1
     2    21    14    1
     3    14    15   ar
     4    15    16   ar
     5    16    17   ar
     6    17     6    1
     7     6     7    1
     8     6     8    1
     9     8     9    1
    10     9    10    1
    11    10     1    1
    12     1     2    1
    13     2     3    1
    14     3     4    1
    15     4    22    1
    16    22    23   am
    17    23    24    2
    18    23    26    1
    19    26    27    1
    20    27    28   am
    21    28    29    2
    22    28    31    1
    23    31    32   ar
    24    32    33   ar
    25    33    34   ar
    26    34    35   ar
    27    35    37    1
    28    37    38    1
    29    37    39    1
    30    37    40    1
    31    35    36   ar
    32     4     5    1
    33    10    11    1
    34    11    12    1
    35    17    18   ar
    36    18    19   ar
    37    19    14   ar
    38    12     6    1
    39     5     1    1
    40    36    31   ar
    41     7    13    1
    42    22    25    1
    43    27    30    1
@<TRIPOS>MOLECULE
*****
 40 43 0 0 0
SMALL
GASTEIGER

@<TRIPOS>ATOM
      1 N          61.3057   92.4743    2.8887 N.3     1  UNL1       -0.2725
      2 C          59.8980   92.9292    3.1363 C.3     1  UNL1        0.0738
      3 C          59.3712   92.1809    4.3247 C.3     1  UNL1        0.0383
      4 C          60.4534   91.2634    4.8117 C.3     1  UNL1        0.0889
      5 C          61.6490   91.4448    3.9242 C.3     1  UNL1        0.0919
      6 C          64.0225   93.9406   -0.3853 C.3     1  UNL1        0.1085
      7 O          65.4155   94.4638   -0.5744 O.3     1  UNL1       -0.3826
      8 C          62.6275   93.4959   -0.7112 C.3     1  UNL1        0.0326
      9 C          61.7219   93.0071    0.3801 C.3     1  UNL1        0.0187
     10 C          62.2112   92.9631    1.7973 C.3     1  UNL1        0.0577
     11 C          63.6062   93.4078    2.1233 C.3     1  UNL1        0.0187
     12 C          64.5118   93.8966    1.0320 C.3     1  UNL1        0.0326
     13 H          65.5626   94.6600   -1.5128 H       1  UNL1        0.2107
     14 C          64.0058   94.6178   -4.8340 C.ar    1  UNL1        0.2250
     15 C          63.4205   93.3595   -4.2647 C.ar    1  UNL1        0.0575
     16 C          63.4261   93.1338   -2.7817 C.ar    1  UNL1        0.0043
     17 C          64.0169   94.1664   -1.8682 C.ar    1  UNL1        0.0211
     18 C          64.6022   95.4246   -2.4375 C.ar    1  UNL1        0.1000
     19 N          64.5966   95.6503   -3.9204 N.ar    1  UNL1       -0.2104
     20 C          63.7356   93.6984   -7.2488 C.3     1  UNL1        0.2542
     21 O          64.0002   94.8435   -6.3169 O.3     1  UNL1       -0.4561
     22 N          60.3570   90.3287    5.9808 N.am    1  UNL1       -0.3032
     23 C          59.0209   89.7972    6.4079 C.2     1  UNL1        0.2425
     24 O          57.7812   90.2003    5.6657 O.2     1  UNL1       -0.2733
     25 H          61.1705   90.0641    6.4680 H       1  UNL1        0.1495
     26 C          58.9244   88.8624    7.5771 C.3     1  UNL1        0.1759
     27 N          59.9716   87.8085    7.7832 N.am    1  UNL1       -0.2931
     28 C          60.3337   87.3725    9.1719 C.2     1  UNL1        0.2462
     29 O          59.6486   87.9903   10.3547 O.2     1  UNL1       -0.2701
     30 H          60.4213   87.4029    7.0069 H       1  UNL1        0.1502
     31 C          61.3810   86.3185    9.3780 C.ar    1  UNL1        0.0533
     32 C          62.2118   85.8503    8.2202 C.ar    1  UNL1        0.0045
     33 C          63.2591   84.7964    8.4263 C.ar    1  UNL1        0.0001
     34 C          63.4755   84.2106    9.7901 C.ar    1  UNL1        0.0039
     35 C          62.6446   84.6788   10.9478 C.ar    1  UNL1        0.0716
     36 C          61.5974   85.7327   10.7418 C.ar    1  UNL1        0.0084
     37 C          62.8610   84.0930   12.3117 C.3     1  UNL1        0.4186
     38 F          63.0774   83.5073   13.6756 F       1  UNL1       -0.1659
     39 F          62.4104   82.7539   11.8081 F       1  UNL1       -0.1659
     40 F          63.3117   85.4322   12.8154 F       1  UNL1       -0.1659
@<TRIPOS>BOND
     1    20    21    1
     2    21    14    1
     3    14    15   ar
     4    15    16   ar
     5    16    17   ar
     6    17     6    1
     7     6     7    1
     8     6     8    1
     9     8     9    1
    10     9    10    1
    11    10     1    1
    12     1     2    1
    13     2     3    1
    14     3     4    1
    15     4    22    1
    16    22    23   am
    17    23    24    2
    18    23    26    1
    19    26    27    1
    20    27    28   am
    21    28    29    2
    22    28    31    1
    23    31    32   ar
    24    32    33   ar
    25    33    34   ar
    26    34    35   ar
    27    35    37    1
    28    37    38    1
    29    37    39    1
    30    37    40    1
    31    35    36   ar
    32     4     5    1
    33    10    11    1
    34    11    12    1
    35    17    18   ar
    36    18    19   ar
    37    19    14   ar
    38    12     6    1
    39     5     1    1
    40    36    31   ar
    41     7    13    1
    42    22    25    1
    43    27    30    1
@<TRIPOS>MOLECULE
*****
 40 43 0 0 0
SMALL
GASTEIGER

@<TRIPOS>ATOM
      1 N          60.6026   88.6218    8.9431 N.3     1  UNL1       -0.2725
      2 C          60.1083   87.3884    8.2473 C.3     1  UNL1        0.0738
      3 C          59.2758   87.8190    7.0762 C.3     1  UNL1        0.0383
      4 C          59.2556   89.3186    7.0482 C.3     1  UNL1        0.0889
      5 C          60.0755   89.8148    8.2020 C.3     1  UNL1        0.0919
      6 C          63.2088   88.7253   12.6101 C.3     1  UNL1        0.1085
      7 O          63.8923   87.7878   13.5608 O.3     1  UNL1       -0.3826
      8 C          62.7502   90.0067   11.9795 C.3     1  UNL1        0.0326
      9 C          61.8814   89.9722   10.7572 C.3     1  UNL1        0.0187
     10 C          61.4713   88.6564   10.1654 C.3     1  UNL1        0.0577
     11 C          61.9299   87.3750   10.7960 C.3     1  UNL1        0.0187
     12 C          62.7987   87.4094   12.0183 C.3     1  UNL1        0.0326
     13 H          64.3671   88.2996   14.2343 H       1  UNL1        0.2107
     14 C          65.1514   91.6963   15.3759 C.ar    1  UNL1        0.2250
     15 C          65.5105   91.6812   13.9197 C.ar    1  UNL1        0.0575
     16 C          64.8629   90.6909   12.9977 C.ar    1  UNL1        0.0043
     17 C          63.8563   89.7156   13.5320 C.ar    1  UNL1        0.0211
     18 C          63.4973   89.7307   14.9883 C.ar    1  UNL1        0.1000
     19 N          64.1448   90.7210   15.9103 N.ar    1  UNL1       -0.2104
     20 C          67.2434   93.0475   16.1160 C.3     1  UNL1        0.2542
     21 O          65.7989   92.6866   16.2979 O.3     1  UNL1       -0.4561
     22 N          58.5409   90.1721    6.0429 N.am    1  UNL1       -0.3032
     23 C          59.3228   91.0680    5.1286 C.2     1  UNL1        0.2425
     24 O          60.8194   91.1103    5.2195 O.2     1  UNL1       -0.2733
     25 H          57.5586   90.1444    5.9832 H       1  UNL1        0.1495
     26 C          58.6080   91.9215    4.1232 C.3     1  UNL1        0.1759
     27 N          59.1234   92.0157    2.7177 N.am    1  UNL1       -0.2931
     28 C          59.8306   93.2567    2.2597 C.2     1  UNL1        0.2462
     29 O          60.0225   94.4036    3.2073 O.2     1  UNL1       -0.2701
     30 H          58.9975   91.2630    2.0958 H       1  UNL1        0.1502
     31 C          60.3460   93.3508    0.8542 C.ar    1  UNL1        0.0533
     32 C          61.7947   93.6496    0.6051 C.ar    1  UNL1        0.0045
     33 C          62.3101   93.7437   -0.8005 C.ar    1  UNL1        0.0001
     34 C          61.3769   93.5392   -1.9569 C.ar    1  UNL1        0.0039
     35 C          59.9282   93.2405   -1.7077 C.ar    1  UNL1        0.0716
     36 C          59.4128   93.1463   -0.3021 C.ar    1  UNL1        0.0084
     37 C          58.9949   93.0359   -2.8641 C.3     1  UNL1        0.4186
     38 F          58.0616   92.8313   -4.0204 F       1  UNL1       -0.1659
     39 F          58.0583   92.2745   -1.9735 F       1  UNL1       -0.1659
     40 F          59.9315   93.7973   -3.7547 F       1  UNL1       -0.1659
@<TRIPOS>BOND
     1    20    21    1
     2    21    14    1
     3    14    15   ar
     4    15    16   ar
     5    16    17   ar
     6    17     6    1
     7     6     7    1
     8     6     8    1
     9     8     9    1
    10     9    10    1
    11    10     1    1
    12     1     2    1
    13     2     3    1
    14     3     4    1
    15     4    22    1
    16    22    23   am
    17    23    24    2
    18    23    26    1
    19    26    27    1
    20    27    28   am
    21    28    29    2
    22    28    31    1
    23    31    32   ar
    24    32    33   ar
    25    33    34   ar
    26    34    35   ar
    27    35    37    1
    28    37    38    1
    29    37    39    1
    30    37    40    1
    31    35    36   ar
    32     4     5    1
    33    10    11    1
    34    11    12    1
    35    17    18   ar
    36    18    19   ar
    37    19    14   ar
    38    12     6    1
    39     5     1    1
    40    36    31   ar
    41     7    13    1
    42    22    25    1
    43    27    30    1
@<TRIPOS>MOLECULE
*****
 40 43 0 0 0
SMALL
GASTEIGER

@<TRIPOS>ATOM
      1 N          60.5798   88.6597    8.9197 N.3     1  UNL1       -0.2725
      2 C          60.0607   87.4284    8.2383 C.3     1  UNL1        0.0738
      3 C          59.2319   87.8619    7.0657 C.3     1  UNL1        0.0383
      4 C          59.2387   89.3613    7.0223 C.3     1  UNL1        0.0889
      5 C          60.0717   89.8543    8.1680 C.3     1  UNL1        0.0919
      6 C          63.2008   88.7537   12.5763 C.3     1  UNL1        0.1085
      7 O          63.8745   87.8138   13.5317 O.3     1  UNL1       -0.3826
      8 C          62.7582   90.0367   11.9377 C.3     1  UNL1        0.0326
      9 C          61.8844   90.0054   10.7188 C.3     1  UNL1        0.0187
     10 C          61.4535   88.6911   10.1385 C.3     1  UNL1        0.0577
     11 C          61.8962   87.4081   10.7771 C.3     1  UNL1        0.0187
     12 C          62.7699   87.4394   11.9960 C.3     1  UNL1        0.0326
     13 H          64.3589   88.3238   14.1996 H       1  UNL1        0.2107
     14 C          65.1956   91.7174   15.3125 C.ar    1  UNL1        0.2250
     15 C          65.5456   91.6895   13.8542 C.ar    1  UNL1        0.0575
     16 C          64.8807   90.7016   12.9422 C.ar    1  UNL1        0.0043
     17 C          63.8658   89.7416   13.4884 C.ar    1  UNL1        0.0211
     18 C          63.5158   89.7696   14.9467 C.ar    1  UNL1        0.1000
     19 N          64.1807   90.7575   15.8588 N.ar    1  UNL1       -0.2104
     20 C          67.3120   93.0365   16.0412 C.3     1  UNL1        0.2542
     21 O          65.8606   92.7053   16.2246 O.3     1  UNL1       -0.4561
     22 N          58.5359   90.2172    6.0107 N.am    1  UNL1       -0.3032
     23 C          59.3293   91.1075    5.1008 C.2     1  UNL1        0.2425
     24 O          60.8254   91.1419    5.2024 O.2     1  UNL1       -0.2733
     25 H          57.5540   90.1946    5.9439 H       1  UNL1        0.1495
     26 C          58.6264   91.9635    4.0891 C.3     1  UNL1        0.1759
     27 N          59.1685   92.0752    2.6949 N.am    1  UNL1       -0.2931
     28 C          59.8927   93.3178    2.2692 C.2     1  UNL1        0.2462
     29 O          60.0749   94.4488    3.2375 O.2     1  UNL1       -0.2701
     30 H          59.0490   91.3329    2.0593 H       1  UNL1        0.1502
     31 C          60.4348   93.4296    0.8750 C.ar    1  UNL1        0.0533
     32 C          59.5972   92.9980   -0.2921 C.ar    1  UNL1        0.0045
     33 C          60.1393   93.1098   -1.6863 C.ar    1  UNL1        0.0001
     34 C          61.5190   93.6530   -1.9134 C.ar    1  UNL1        0.0039
     35 C          62.3565   94.0844   -0.7462 C.ar    1  UNL1        0.0716
     36 C          61.8144   93.9727    0.6480 C.ar    1  UNL1        0.0084
     37 C          63.7362   94.6277   -0.9731 C.3     1  UNL1        0.4186
     38 F          65.1158   95.1709   -1.2001 F       1  UNL1       -0.1659
     39 F          63.8411   93.8319   -2.2403 F       1  UNL1       -0.1659
     40 F          63.6314   95.4234    0.2941 F       1  UNL1       -0.1659
@<TRIPOS>BOND
     1    20    21    1
     2    21    14    1
     3    14    15   ar
     4    15    16   ar
     5    16    17   ar
     6    17     6    1
     7     6     7    1
     8     6     8    1
     9     8     9    1
    10     9    10    1
    11    10     1    1
    12     1     2    1
    13     2     3    1
    14     3     4    1
    15     4    22    1
    16    22    23   am
    17    23    24    2
    18    23    26    1
    19    26    27    1
    20    27    28   am
    21    28    29    2
    22    28    31    1
    23    31    32   ar
    24    32    33   ar
    25    33    34   ar
    26    34    35   ar
    27    35    37    1
    28    37    38    1
    29    37    39    1
    30    37    40    1
    31    35    36   ar
    32     4     5    1
    33    10    11    1
    34    11    12    1
    35    17    18   ar
    36    18    19   ar
    37    19    14   ar
    38    12     6    1
    39     5     1    1
    40    36    31   ar
    41     7    13    1
    42    22    25    1
    43    27    30    1
@<TRIPOS>MOLECULE
*****
 40 43 0 0 0
SMALL
GASTEIGER

@<TRIPOS>ATOM
      1 N          60.1510   88.2654    8.3405 N.3     1  UNL1       -0.2725
      2 C          59.2155   87.4993    7.4530 C.3     1  UNL1        0.0738
      3 C          58.6306   88.4579    6.4585 C.3     1  UNL1        0.0383
      4 C          59.2047   89.8166    6.7314 C.3     1  UNL1        0.0889
      5 C          60.1444   89.6976    7.8945 C.3     1  UNL1        0.0919
      6 C          62.5557   86.5663   11.7435 C.3     1  UNL1        0.1085
      7 O          63.4691   87.0193   12.8437 O.3     1  UNL1       -0.3826
      8 C          61.7515   85.6546   10.8648 C.3     1  UNL1        0.0326
      9 C          60.9499   86.2210    9.7305 C.3     1  UNL1        0.0187
     10 C          60.9525   87.6990    9.4748 C.3     1  UNL1        0.0577
     11 C          61.7567   88.6107   10.3534 C.3     1  UNL1        0.0187
     12 C          62.5583   88.0443   11.4878 C.3     1  UNL1        0.0326
     13 H          63.7626   86.2506   13.3573 H       1  UNL1        0.2107
     14 C          63.4994   82.6041   13.6567 C.ar    1  UNL1        0.2250
     15 C          63.7948   83.8797   14.3886 C.ar    1  UNL1        0.0575
     16 C          63.4802   85.2004   13.7508 C.ar    1  UNL1        0.0043
     17 C          62.8703   85.2456   12.3812 C.ar    1  UNL1        0.0211
     18 C          62.5749   83.9700   11.6494 C.ar    1  UNL1        0.1000
     19 N          62.8895   82.6493   12.2871 N.ar    1  UNL1       -0.2104
     20 C          63.0397   80.0592   13.9052 C.3     1  UNL1        0.2542
     21 O          63.8140   81.2834   14.2945 O.3     1  UNL1       -0.4561
     22 N          58.8938   91.0735    5.9741 N.am    1  UNL1       -0.3032
     23 C          59.8408   91.5686    4.9215 C.2     1  UNL1        0.2425
     24 O          61.0987   90.8068    4.6261 O.2     1  UNL1       -0.2733
     25 H          58.0681   91.5734    6.1680 H       1  UNL1        0.1495
     26 C          59.5298   92.8255    4.1642 C.3     1  UNL1        0.1759
     27 N          59.2548   92.7649    2.6908 N.am    1  UNL1       -0.2931
     28 C          60.2645   93.2959    1.7170 C.2     1  UNL1        0.2462
     29 O          61.5492   93.8876    2.2163 O.2     1  UNL1       -0.2701
     30 H          58.4116   92.3765    2.3631 H       1  UNL1        0.1502
     31 C          59.9894   93.2352    0.2436 C.ar    1  UNL1        0.0533
     32 C          61.0752   93.5681   -0.7363 C.ar    1  UNL1        0.0045
     33 C          60.8002   93.5075   -2.2096 C.ar    1  UNL1        0.0001
     34 C          59.4395   93.1139   -2.7031 C.ar    1  UNL1        0.0039
     35 C          58.3537   92.7810   -1.7231 C.ar    1  UNL1        0.0716
     36 C          58.6288   92.8416   -0.2498 C.ar    1  UNL1        0.0084
     37 C          56.9929   92.3874   -2.2165 C.3     1  UNL1        0.4186
     38 F          55.6322   91.9938   -2.7099 F       1  UNL1       -0.1659
     39 F          56.3676   93.0699   -1.0363 F       1  UNL1       -0.1659
     40 F          57.6183   91.7049   -3.3969 F       1  UNL1       -0.1659
@<TRIPOS>BOND
     1    20    21    1
     2    21    14    1
     3    14    15   ar
     4    15    16   ar
     5    16    17   ar
     6    17     6    1
     7     6     7    1
     8     6     8    1
     9     8     9    1
    10     9    10    1
    11    10     1    1
    12     1     2    1
    13     2     3    1
    14     3     4    1
    15     4    22    1
    16    22    23   am
    17    23    24    2
    18    23    26    1
    19    26    27    1
    20    27    28   am
    21    28    29    2
    22    28    31    1
    23    31    32   ar
    24    32    33   ar
    25    33    34   ar
    26    34    35   ar
    27    35    37    1
    28    37    38    1
    29    37    39    1
    30    37    40    1
    31    35    36   ar
    32     4     5    1
    33    10    11    1
    34    11    12    1
    35    17    18   ar
    36    18    19   ar
    37    19    14   ar
    38    12     6    1
    39     5     1    1
    40    36    31   ar
    41     7    13    1
    42    22    25    1
    43    27    30    1
@<TRIPOS>MOLECULE
*****
 40 43 0 0 0
SMALL
GASTEIGER

@<TRIPOS>ATOM
      1 N          61.4780   92.8990    2.4612 N.3     1  UNL1       -0.2725
      2 C          60.1342   93.4622    2.8173 C.3     1  UNL1        0.0738
      3 C          59.5878   92.6670    3.9657 C.3     1  UNL1        0.0383
      4 C          60.5940   91.6122    4.3195 C.3     1  UNL1        0.0889
      5 C          61.7622   91.7557    3.3897 C.3     1  UNL1        0.0919
      6 C          64.1826   94.3794   -0.8165 C.3     1  UNL1        0.1085
      7 O          65.4807   95.1101   -0.9930 O.3     1  UNL1       -0.3826
      8 C          62.9134   93.6576   -1.1602 C.3     1  UNL1        0.0326
      9 C          62.0118   93.1641   -0.0676 C.3     1  UNL1        0.0187
     10 C          62.3795   93.3925    1.3686 C.3     1  UNL1        0.0577
     11 C          63.6487   94.1143    1.7122 C.3     1  UNL1        0.0187
     12 C          64.5503   94.6078    0.6196 C.3     1  UNL1        0.0326
     13 H          65.6724   95.2047   -1.9392 H       1  UNL1        0.2107
     14 C          64.4320   94.4556   -5.3090 C.ar    1  UNL1        0.2250
     15 C          63.9058   93.2387   -4.6076 C.ar    1  UNL1        0.0575
     16 C          63.8226   93.2133   -3.1101 C.ar    1  UNL1        0.0043
     17 C          64.2657   94.4048   -2.3140 C.ar    1  UNL1        0.0211
     18 C          64.7920   95.6218   -3.0154 C.ar    1  UNL1        0.1000
     19 N          64.8752   95.6472   -4.5129 N.ar    1  UNL1       -0.2104
     20 C          65.2110   95.6146   -7.4999 C.3     1  UNL1        0.2542
     21 O          64.5152   94.4810   -6.8065 O.3     1  UNL1       -0.4561
     22 N          60.4562   90.5931    5.4114 N.am    1  UNL1       -0.3032
     23 C          59.0939   90.1805    5.8846 C.2     1  UNL1        0.2425
     24 O          57.8694   90.7870    5.2659 O.2     1  UNL1       -0.2733
     25 H          61.2598   90.1949    5.8175 H       1  UNL1        0.1495
     26 C          58.9560   89.1613    6.9765 C.3     1  UNL1        0.1759
     27 N          59.9198   89.1584    8.1258 N.am    1  UNL1       -0.2931
     28 C          60.2722   87.8687    8.8059 C.2     1  UNL1        0.2462
     29 O          59.6608   86.5818    8.3366 O.2     1  UNL1       -0.2701
     30 H          60.3211   90.0030    8.4339 H       1  UNL1        0.1502
     31 C          61.2361   87.8658    9.9552 C.ar    1  UNL1        0.0533
     32 C          61.6421   86.5689   10.5902 C.ar    1  UNL1        0.0045
     33 C          62.6060   86.5660   11.7396 C.ar    1  UNL1        0.0001
     34 C          63.1638   87.8600   12.2540 C.ar    1  UNL1        0.0039
     35 C          62.7577   89.1568   11.6189 C.ar    1  UNL1        0.0716
     36 C          61.7939   89.1597   10.4696 C.ar    1  UNL1        0.0084
     37 C          63.3155   90.4508   12.1333 C.3     1  UNL1        0.4186
     38 F          63.8732   91.7448   12.6476 F       1  UNL1       -0.1659
     39 F          64.2408   89.6924   13.0379 F       1  UNL1       -0.1659
     40 F          62.3901   91.2093   11.2286 F       1  UNL1       -0.1659
@<TRIPOS>BOND
     1    20    21    1
     2    21    14    1
     3    14    15   ar
     4    15    16   ar
     5    16    17   ar
     6    17     6    1
     7     6     7    1
     8     6     8    1
     9     8     9    1
    10     9    10    1
    11    10     1    1
    12     1     2    1
    13     2     3    1
    14     3     4    1
    15     4    22    1
    16    22    23   am
    17    23    24    2
    18    23    26    1
    19    26    27    1
    20    27    28   am
    21    28    29    2
    22    28    31    1
    23    31    32   ar
    24    32    33   ar
    25    33    34   ar
    26    34    35   ar
    27    35    37    1
    28    37    38    1
    29    37    39    1
    30    37    40    1
    31    35    36   ar
    32     4     5    1
    33    10    11    1
    34    11    12    1
    35    17    18   ar
    36    18    19   ar
    37    19    14   ar
    38    12     6    1
    39     5     1    1
    40    36    31   ar
    41     7    13    1
    42    22    25    1
    43    27    30    1
@<TRIPOS>MOLECULE
*****
 40 43 0 0 0
SMALL
GASTEIGER

@<TRIPOS>ATOM
      1 N          59.6191   89.3239    7.0558 N.3     1  UNL1       -0.2725
      2 C          58.7932   88.0752    7.1479 C.3     1  UNL1        0.0738
      3 C          59.0695   87.4334    8.4751 C.3     1  UNL1        0.0383
      4 C          60.0662   88.2856    9.2035 C.3     1  UNL1        0.0889
      5 C          60.4059   89.4539    8.3263 C.3     1  UNL1        0.0919
      6 C          59.7191   92.1789    3.5789 C.3     1  UNL1        0.1085
      7 O          58.7850   92.9923    2.7328 O.3     1  UNL1       -0.3826
      8 C          60.9952   91.5894    4.1022 C.3     1  UNL1        0.0326
      9 C          60.9619   90.6377    5.2612 C.3     1  UNL1        0.0187
     10 C          59.6525   90.2756    5.8968 C.3     1  UNL1        0.0577
     11 C          58.3763   90.8650    5.3736 C.3     1  UNL1        0.0187
     12 C          58.4096   91.8168    4.2146 C.3     1  UNL1        0.0326
     13 H          59.2940   93.4793    2.0660 H       1  UNL1        0.2107
     14 C          62.6743   94.1129    0.7904 C.ar    1  UNL1        0.2250
     15 C          63.1208   93.0205    1.7162 C.ar    1  UNL1        0.0575
     16 C          62.1357   92.3759    2.6458 C.ar    1  UNL1        0.0043
     17 C          60.7041   92.8236    2.6494 C.ar    1  UNL1        0.0211
     18 C          60.2576   93.9160    1.7236 C.ar    1  UNL1        0.1000
     19 N          61.2427   94.5607    0.7941 N.ar    1  UNL1       -0.2104
     20 C          65.0939   94.9055    0.2734 C.3     1  UNL1        0.2542
     21 O          63.6594   94.7576   -0.1391 O.3     1  UNL1       -0.4561
     22 N          60.6251   88.0165   10.5692 N.am    1  UNL1       -0.3032
     23 C          61.9645   87.3571   10.7149 C.2     1  UNL1        0.2425
     24 O          62.7450   86.9667    9.4950 O.2     1  UNL1       -0.2733
     25 H          60.1128   88.2728   11.3699 H       1  UNL1        0.1495
     26 C          62.5234   87.0880   12.0807 C.3     1  UNL1        0.1759
     27 N          63.4758   88.0632   12.7069 N.am    1  UNL1       -0.2931
     28 C          63.1984   89.5354   12.6325 C.2     1  UNL1        0.2462
     29 O          61.9687   90.0326   11.9320 O.2     1  UNL1       -0.2701
     30 H          64.2829   87.7369   13.1666 H       1  UNL1        0.1502
     31 C          64.1508   90.5106   13.2586 C.ar    1  UNL1        0.0533
     32 C          64.5628   90.3421   14.6910 C.ar    1  UNL1        0.0045
     33 C          65.5152   91.3172   15.3172 C.ar    1  UNL1        0.0001
     34 C          66.0556   92.4609   14.5109 C.ar    1  UNL1        0.0039
     35 C          65.6435   92.6294   13.0785 C.ar    1  UNL1        0.0716
     36 C          64.6912   91.6542   12.4524 C.ar    1  UNL1        0.0084
     37 C          66.1839   93.7730   12.2722 C.3     1  UNL1        0.4186
     38 F          66.7242   94.9166   11.4659 F       1  UNL1       -0.1659
     39 F          66.5572   94.4883   13.5367 F       1  UNL1       -0.1659
     40 F          65.8107   93.0578   11.0075 F       1  UNL1       -0.1659
@<TRIPOS>BOND
     1    20    21    1
     2    21    14    1
     3    14    15   ar
     4    15    16   ar
     5    16    17   ar
     6    17     6    1
     7     6     7    1
     8     6     8    1
     9     8     9    1
    10     9    10    1
    11    10     1    1
    12     1     2    1
    13     2     3    1
    14     3     4    1
    15     4    22    1
    16    22    23   am
    17    23    24    2
    18    23    26    1
    19    26    27    1
    20    27    28   am
    21    28    29    2
    22    28    31    1
    23    31    32   ar
    24    32    33   ar
    25    33    34   ar
    26    34    35   ar
    27    35    37    1
    28    37    38    1
    29    37    39    1
    30    37    40    1
    31    35    36   ar
    32     4     5    1
    33    10    11    1
    34    11    12    1
    35    17    18   ar
    36    18    19   ar
    37    19    14   ar
    38    12     6    1
    39     5     1    1
    40    36    31   ar
    41     7    13    1
    42    22    25    1
    43    27    30    1
@<TRIPOS>MOLECULE
*****
 40 43 0 0 0
SMALL
GASTEIGER

@<TRIPOS>ATOM
      1 N          60.1022   88.3241    8.3608 N.3     1  UNL1       -0.2725
      2 C          59.0955   87.5704    7.5434 C.3     1  UNL1        0.0738
      3 C          58.5170   88.5161    6.5331 C.3     1  UNL1        0.0383
      4 C          59.1661   89.8546    6.7261 C.3     1  UNL1        0.0889
      5 C          60.1458   89.7359    7.8557 C.3     1  UNL1        0.0919
      6 C          62.5601   86.6457   11.7359 C.3     1  UNL1        0.1085
      7 O          63.4913   87.1053   12.8184 O.3     1  UNL1       -0.3826
      8 C          61.7415   85.7288   10.8762 C.3     1  UNL1        0.0326
      9 C          60.9222   86.2883    9.7511 C.3     1  UNL1        0.0187
     10 C          60.9215   87.7646    9.4858 C.3     1  UNL1        0.0577
     11 C          61.7401   88.6815   10.3456 C.3     1  UNL1        0.0187
     12 C          62.5594   88.1220   11.4706 C.3     1  UNL1        0.0326
     13 H          63.7925   86.3397   13.3323 H       1  UNL1        0.2107
     14 C          63.5323   82.6955   13.6596 C.ar    1  UNL1        0.2250
     15 C          63.7995   83.9744   14.3964 C.ar    1  UNL1        0.0575
     16 C          63.4754   85.2912   13.7552 C.ar    1  UNL1        0.0043
     17 C          62.8842   85.3290   12.3772 C.ar    1  UNL1        0.0211
     18 C          62.6170   84.0500   11.6404 C.ar    1  UNL1        0.1000
     19 N          62.9411   82.7333   12.2816 N.ar    1  UNL1       -0.2104
     20 C          63.0679   80.1547   13.9403 C.3     1  UNL1        0.2542
     21 O          63.8564   81.3787   14.3008 O.3     1  UNL1       -0.4561
     22 N          58.8849   91.0940    5.9295 N.am    1  UNL1       -0.3032
     23 C          59.8473   91.5376    4.8679 C.2     1  UNL1        0.2425
     24 O          61.0909   90.7419    4.6029 O.2     1  UNL1       -0.2733
     25 H          58.0687   91.6163    6.1033 H       1  UNL1        0.1495
     26 C          59.5660   92.7771    4.0711 C.3     1  UNL1        0.1759
     27 N          59.4275   92.6947    2.5798 N.am    1  UNL1       -0.2931
     28 C          59.7335   93.8928    1.7308 C.2     1  UNL1        0.2462
     29 O          60.1782   95.1734    2.3731 O.2     1  UNL1       -0.2701
     30 H          59.1356   91.8543    2.1582 H       1  UNL1        0.1502
     31 C          59.5949   93.8104    0.2395 C.ar    1  UNL1        0.0533
     32 C          58.2348   93.8600   -0.3911 C.ar    1  UNL1        0.0045
     33 C          58.0962   93.7776   -1.8825 C.ar    1  UNL1        0.0001
     34 C          59.3177   93.6457   -2.7432 C.ar    1  UNL1        0.0039
     35 C          60.6777   93.5962   -2.1124 C.ar    1  UNL1        0.0716
     36 C          60.8163   93.6785   -0.6211 C.ar    1  UNL1        0.0084
     37 C          61.8992   93.4642   -2.9731 C.3     1  UNL1        0.4186
     38 F          63.1206   93.3323   -3.8336 F       1  UNL1       -0.1659
     39 F          61.1063   93.9079   -4.1665 F       1  UNL1       -0.1659
     40 F          62.6922   93.0206   -1.7795 F       1  UNL1       -0.1659
@<TRIPOS>BOND
     1    20    21    1
     2    21    14    1
     3    14    15   ar
     4    15    16   ar
     5    16    17   ar
     6    17     6    1
     7     6     7    1
     8     6     8    1
     9     8     9    1
    10     9    10    1
    11    10     1    1
    12     1     2    1
    13     2     3    1
    14     3     4    1
    15     4    22    1
    16    22    23   am
    17    23    24    2
    18    23    26    1
    19    26    27    1
    20    27    28   am
    21    28    29    2
    22    28    31    1
    23    31    32   ar
    24    32    33   ar
    25    33    34   ar
    26    34    35   ar
    27    35    37    1
    28    37    38    1
    29    37    39    1
    30    37    40    1
    31    35    36   ar
    32     4     5    1
    33    10    11    1
    34    11    12    1
    35    17    18   ar
    36    18    19   ar
    37    19    14   ar
    38    12     6    1
    39     5     1    1
    40    36    31   ar
    41     7    13    1
    42    22    25    1
    43    27    30    1
