@<TRIPOS>MOLECULE
*****
 56 63 0 0 0
SMALL
GASTEIGER

@<TRIPOS>ATOM
      1 C          62.7145   84.5671   12.6254 C.ar    1  UNL1        0.0558
      2 C          62.2393   83.1880   12.9749 C.ar    1  UNL1        0.0413
      3 C          62.4369   82.6560   14.3634 C.ar    1  UNL1        0.1392
      4 C          63.1098   83.5031   15.4024 C.ar    1  UNL1        0.0382
      5 C          63.5850   84.8822   15.0530 C.ar    1  UNL1        0.0179
      6 C          63.3874   85.4142   13.6645 C.ar    1  UNL1        0.0539
      7 N          61.6410   86.3381    9.3427 N.ar    1  UNL1       -0.1285
      8 N          62.7847   85.4975    8.8578 N.ar    1  UNL1       -0.0406
      9 N          63.3261   84.7317   10.0285 N.ar    1  UNL1       -0.1074
     10 C          62.5169   85.0991   11.2370 C.ar    1  UNL1        0.2075
     11 N          61.4755   86.0919   10.8131 N.ar    1  UNL1       -0.1253
     12 C          59.1446   89.1118    6.8278 C.ar    1  UNL1       -0.0207
     13 C          60.0165   89.6658    7.9154 C.ar    1  UNL1       -0.0026
     14 C          60.8486   88.7412    8.7537 C.ar    1  UNL1        0.0206
     15 C          60.8089   87.2626    8.5044 C.ar    1  UNL1        0.1045
     16 C          59.9370   86.7086    7.4168 C.ar    1  UNL1        0.0206
     17 C          59.1049   87.6331    6.5785 C.ar    1  UNL1       -0.0026
     18 C          58.3125   90.0363    5.9895 C.3     1  UNL1        0.0437
     19 C          58.7628   91.4482    5.7576 C.3     1  UNL1        0.0771
     20 C          62.4619   93.5974    0.3773 C.ar    1  UNL1        0.1721
     21 C          62.8020   92.6454    1.4853 C.ar    1  UNL1        0.0356
     22 C          61.7922   92.3461    2.5534 C.ar    1  UNL1       -0.0202
     23 C          60.4423   92.9989    2.5134 C.ar    1  UNL1       -0.0068
     24 C          60.1022   93.9510    1.4053 C.ar    1  UNL1        0.0368
     25 C          61.1120   94.2503    0.3373 C.ar    1  UNL1        0.1721
     26 C          59.4325   92.6996    3.5815 C.3     1  UNL1        0.0990
     27 N          59.7726   91.7475    4.6895 N.3     1  UNL1       -0.2683
     28 C          61.1225   91.0947    4.7295 C.3     1  UNL1        0.0771
     29 C          62.1323   91.3940    3.6615 C.3     1  UNL1        0.0435
     30 C          64.4432   95.0251   -0.5094 C.3     1  UNL1        0.2526
     31 O          63.4717   93.8968   -0.6909 O.3     1  UNL1       -0.4684
     32 O          60.7719   95.2024   -0.7709 O.3     1  UNL1       -0.4684
     33 C          60.1540   94.6890   -2.0376 C.3     1  UNL1        0.2526
     34 N          63.8627   86.7934   13.3151 N.am    1  UNL1       -0.2778
     35 C          63.9012   87.8623   14.3667 C.2     1  UNL1        0.2843
     36 O          63.4645   87.5521   15.7678 O.2     1  UNL1       -0.2665
     37 H          64.1493   86.9970   12.3955 H       1  UNL1        0.1553
     38 C          64.3764   89.2414   14.0173 C.ar    1  UNL1        0.2017
     39 C          63.8891   89.9078   12.7649 C.ar    1  UNL1        0.0843
     40 C          64.3643   91.2868   12.4155 C.ar    1  UNL1        0.2018
     41 O          63.8770   91.9532   11.1630 O.2     1  UNL1       -0.2864
     42 C          65.3268   91.9997   13.3185 C.ar    1  UNL1        0.0735
     43 C          65.8021   93.3789   12.9690 C.ar    1  UNL1        0.0062
     44 C          66.7646   94.0918   13.8721 C.ar    1  UNL1        0.0003
     45 C          67.2519   93.4254   15.1245 C.ar    1  UNL1        0.0031
     46 C          66.7767   92.0462   15.4739 C.ar    1  UNL1        0.0376
     47 C          65.8141   91.3334   14.5709 C.ar    1  UNL1        0.1485
     48 O          65.3390   89.9543   14.9203 O.2     1  UNL1       -0.4487
     49 O          61.9616   81.2768   14.7127 O.3     1  UNL1       -0.4706
     50 C          62.6639   80.0766   14.1504 C.3     1  UNL1        0.2335
     51 C          62.7429   79.8814   12.6651 C.ar    1  UNL1        0.0403
     52 C          63.1226   81.0289   11.7771 C.ar    1  UNL1        0.0025
     53 C          63.2016   80.8338   10.2919 C.ar    1  UNL1        0.0205
     54 C          62.9008   79.4910    9.6949 C.ar    1  UNL1        0.0989
     55 N          62.5209   78.3434   10.5830 N.ar    1  UNL1       -0.2425
     56 C          62.4420   78.5386   12.0681 C.ar    1  UNL1        0.0982
@<TRIPOS>BOND
     1    30    31    1
     2    31    20    1
     3    20    21   ar
     4    21    22   ar
     5    22    23   ar
     6    23    24   ar
     7    24    25   ar
     8    25    32    1
     9    32    33    1
    10    23    26    1
    11    26    27    1
    12    27    19    1
    13    19    18    1
    14    18    12    1
    15    12    13   ar
    16    13    14   ar
    17    14    15   ar
    18    15     7    1
    19     7     8   ar
    20     8     9   ar
    21     9    10   ar
    22    10     1    1
    23     1     2   ar
    24     2     3   ar
    25     3    49    1
    26    49    50    1
    27    50    51    1
    28    51    52   ar
    29    52    53   ar
    30    53    54   ar
    31    54    55   ar
    32    55    56   ar
    33     3     4   ar
    34     4     5   ar
    35     5     6   ar
    36     6    34    1
    37    34    35   am
    38    35    36    2
    39    35    38    1
    40    38    39   ar
    41    39    40   ar
    42    40    41    2
    43    40    42   ar
    44    42    43   ar
    45    43    44   ar
    46    44    45   ar
    47    45    46   ar
    48    46    47   ar
    49    47    48   ar
    50    10    11   ar
    51    15    16   ar
    52    16    17   ar
    53    27    28    1
    54    28    29    1
    55    25    20   ar
    56    17    12   ar
    57    29    22    1
    58    11     7   ar
    59     6     1   ar
    60    48    38   ar
    61    56    51   ar
    62    47    42   ar
    63    34    37    1
@<TRIPOS>MOLECULE
*****
 56 63 0 0 0
SMALL
GASTEIGER

@<TRIPOS>ATOM
      1 C          63.0853   88.2619   12.9381 C.ar    1  UNL1        0.0558
      2 C          63.1958   89.6728   13.4352 C.ar    1  UNL1        0.0413
      3 C          64.0569   89.9842   14.6232 C.ar    1  UNL1        0.1392
      4 C          64.8076   88.8846   15.3143 C.ar    1  UNL1        0.0382
      5 C          64.6971   87.4737   14.8172 C.ar    1  UNL1        0.0179
      6 C          63.8360   87.1624   13.6292 C.ar    1  UNL1        0.0539
      7 N          60.9295   88.1905    9.7112 N.ar    1  UNL1       -0.1285
      8 N          60.8687   86.7521   10.1323 N.ar    1  UNL1       -0.0406
      9 N          61.6689   86.6038   11.3923 N.ar    1  UNL1       -0.1074
     10 C          62.2243   87.9505   11.7500 C.ar    1  UNL1        0.2075
     11 N          61.7673   88.9312   10.7110 N.ar    1  UNL1       -0.1253
     12 C          58.9468   89.9711    6.0851 C.ar    1  UNL1       -0.0207
     13 C          58.5451   88.6084    6.5664 C.ar    1  UNL1       -0.0026
     14 C          59.2061   88.0148    7.7751 C.ar    1  UNL1        0.0206
     15 C          60.2687   88.7840    8.5025 C.ar    1  UNL1        0.1045
     16 C          60.6704   90.1468    8.0213 C.ar    1  UNL1        0.0206
     17 C          60.0095   90.7403    6.8126 C.ar    1  UNL1       -0.0026
     18 C          58.2859   90.5646    4.8765 C.3     1  UNL1        0.0437
     19 C          58.5837   91.9797    4.4778 C.3     1  UNL1        0.0771
     20 C          62.6691   93.7080   -0.7732 C.ar    1  UNL1        0.1721
     21 C          62.9917   93.1321    0.5737 C.ar    1  UNL1        0.0356
     22 C          61.8897   92.8440    1.5498 C.ar    1  UNL1       -0.0202
     23 C          60.4651   93.1318    1.1789 C.ar    1  UNL1       -0.0068
     24 C          60.1425   93.7077   -0.1681 C.ar    1  UNL1        0.0368
     25 C          61.2445   93.9958   -1.1441 C.ar    1  UNL1        0.1721
     26 C          59.3631   92.8437    2.1548 C.3     1  UNL1        0.0990
     27 N          59.6857   92.2678    3.5017 N.3     1  UNL1       -0.2683
     28 C          61.1103   91.9800    3.8727 C.3     1  UNL1        0.0771
     29 C          62.2123   92.2681    2.8967 C.3     1  UNL1        0.0435
     30 C          64.5826   95.2506   -1.6153 C.3     1  UNL1        0.2526
     31 O          63.7711   93.9962   -1.7492 O.3     1  UNL1       -0.4684
     32 O          60.9218   94.5717   -2.4911 O.3     1  UNL1       -0.4684
     33 C          59.7812   94.0156   -3.2909 C.3     1  UNL1        0.2526
     34 N          63.7255   85.7514   13.1321 N.am    1  UNL1       -0.2778
     35 C          63.0558   84.7087   13.9773 C.2     1  UNL1        0.2843
     36 O          62.4965   85.0770   15.3195 O.2     1  UNL1       -0.2665
     37 H          64.0926   85.5096   12.2511 H       1  UNL1        0.1553
     38 C          62.9453   83.2978   13.4803 C.ar    1  UNL1        0.2017
     39 C          62.7206   82.1763   14.4507 C.ar    1  UNL1        0.0843
     40 C          62.6101   80.7653   13.9537 C.ar    1  UNL1        0.2018
     41 O          62.3854   79.6437   14.9242 O.2     1  UNL1       -0.2864
     42 C          62.7242   80.4759   12.4863 C.ar    1  UNL1        0.0735
     43 C          62.6137   79.0649   11.9894 C.ar    1  UNL1        0.0062
     44 C          62.7279   78.7755   10.5220 C.ar    1  UNL1        0.0003
     45 C          62.9526   79.8970    9.5516 C.ar    1  UNL1        0.0031
     46 C          63.0631   81.3080   10.0486 C.ar    1  UNL1        0.0376
     47 C          62.9489   81.5975   11.5160 C.ar    1  UNL1        0.1485
     48 O          63.0594   83.0084   12.0129 O.2     1  UNL1       -0.4487
     49 O          64.1674   91.3951   15.1203 O.3     1  UNL1       -0.4706
     50 C          65.4563   92.1465   14.9644 C.3     1  UNL1        0.2335
     51 C          66.1316   92.2079   13.6264 C.ar    1  UNL1        0.0403
     52 C          65.3438   92.5787   12.4051 C.ar    1  UNL1        0.0025
     53 C          66.0190   92.6401   11.0671 C.ar    1  UNL1        0.0205
     54 C          67.4821   92.3306   10.9504 C.ar    1  UNL1        0.0989
     55 N          68.2699   91.9597   12.1718 N.ar    1  UNL1       -0.2425
     56 C          67.5946   91.8983   13.5098 C.ar    1  UNL1        0.0982
@<TRIPOS>BOND
     1    30    31    1
     2    31    20    1
     3    20    21   ar
     4    21    22   ar
     5    22    23   ar
     6    23    24   ar
     7    24    25   ar
     8    25    32    1
     9    32    33    1
    10    23    26    1
    11    26    27    1
    12    27    19    1
    13    19    18    1
    14    18    12    1
    15    12    13   ar
    16    13    14   ar
    17    14    15   ar
    18    15     7    1
    19     7     8   ar
    20     8     9   ar
    21     9    10   ar
    22    10     1    1
    23     1     2   ar
    24     2     3   ar
    25     3    49    1
    26    49    50    1
    27    50    51    1
    28    51    52   ar
    29    52    53   ar
    30    53    54   ar
    31    54    55   ar
    32    55    56   ar
    33     3     4   ar
    34     4     5   ar
    35     5     6   ar
    36     6    34    1
    37    34    35   am
    38    35    36    2
    39    35    38    1
    40    38    39   ar
    41    39    40   ar
    42    40    41    2
    43    40    42   ar
    44    42    43   ar
    45    43    44   ar
    46    44    45   ar
    47    45    46   ar
    48    46    47   ar
    49    47    48   ar
    50    10    11   ar
    51    15    16   ar
    52    16    17   ar
    53    27    28    1
    54    28    29    1
    55    25    20   ar
    56    17    12   ar
    57    29    22    1
    58    11     7   ar
    59     6     1   ar
    60    48    38   ar
    61    56    51   ar
    62    47    42   ar
    63    34    37    1
@<TRIPOS>MOLECULE
*****
 56 63 0 0 0
SMALL
GASTEIGER

@<TRIPOS>ATOM
      1 C          63.1672   89.2349   14.2736 C.ar    1  UNL1        0.0558
      2 C          62.7767   88.4605   15.4973 C.ar    1  UNL1        0.0413
      3 C          63.1445   88.9729   16.8582 C.ar    1  UNL1        0.1392
      4 C          63.9029   90.2598   16.9954 C.ar    1  UNL1        0.0382
      5 C          64.2934   91.0342   15.7717 C.ar    1  UNL1        0.0179
      6 C          63.9256   90.5219   14.4108 C.ar    1  UNL1        0.0539
      7 N          61.8133   88.5443   10.7021 N.ar    1  UNL1       -0.1285
      8 N          62.6536   87.3237   10.9345 N.ar    1  UNL1       -0.0406
      9 N          63.2631   87.4339   12.3007 N.ar    1  UNL1       -0.1074
     10 C          62.7995   88.7226   12.9126 C.ar    1  UNL1        0.2075
     11 N          61.9035   89.4088   11.9246 N.ar    1  UNL1       -0.1253
     12 C          59.4390   89.4531    6.9890 C.ar    1  UNL1       -0.0207
     13 C          60.1339   90.5604    7.7247 C.ar    1  UNL1       -0.0026
     14 C          60.9254   90.2574    8.9624 C.ar    1  UNL1        0.0206
     15 C          61.0219   88.8472    9.4644 C.ar    1  UNL1        0.1045
     16 C          60.3270   87.7400    8.7288 C.ar    1  UNL1        0.0206
     17 C          59.5356   88.0429    7.4912 C.ar    1  UNL1       -0.0026
     18 C          58.6476   89.7560    5.7514 C.3     1  UNL1        0.0437
     19 C          58.6116   91.1534    5.2074 C.3     1  UNL1        0.0771
     20 C          62.7190   94.1425    0.5765 C.ar    1  UNL1        0.1721
     21 C          63.0004   93.0817    1.5989 C.ar    1  UNL1        0.0356
     22 C          61.9032   92.5996    2.5011 C.ar    1  UNL1       -0.0202
     23 C          60.5246   93.1784    2.3808 C.ar    1  UNL1       -0.0068
     24 C          60.2432   94.2393    1.3583 C.ar    1  UNL1        0.0368
     25 C          61.3404   94.7214    0.4562 C.ar    1  UNL1        0.1721
     26 C          59.4274   92.6964    3.2829 C.3     1  UNL1        0.0990
     27 N          59.7088   91.6355    4.3053 N.3     1  UNL1       -0.2683
     28 C          61.0874   91.0567    4.4256 C.3     1  UNL1        0.0771
     29 C          62.1846   91.5387    3.5235 C.3     1  UNL1        0.0435
     30 C          65.0913   95.1539    0.2610 C.3     1  UNL1        0.2526
     31 O          63.8162   94.6246   -0.3256 O.3     1  UNL1       -0.4684
     32 O          61.0590   95.7823   -0.5662 O.3     1  UNL1       -0.4684
     33 C          60.3920   95.4191   -1.8598 C.3     1  UNL1        0.2526
     34 N          64.3162   91.2964   13.1869 N.am    1  UNL1       -0.2778
     35 C          65.7018   91.8578   13.0652 C.2     1  UNL1        0.2843
     36 O          66.6969   91.6447   14.1672 O.2     1  UNL1       -0.2665
     37 H          63.6631   91.4362   12.4636 H       1  UNL1        0.1553
     38 C          66.0924   92.6323   11.8414 C.ar    1  UNL1        0.2017
     39 C          67.1058   92.0695   10.8894 C.ar    1  UNL1        0.0843
     40 C          67.4965   92.8439    9.6657 C.ar    1  UNL1        0.2018
     41 O          68.5099   92.2811    8.7137 O.2     1  UNL1       -0.2864
     42 C          66.8737   94.1811    9.3939 C.ar    1  UNL1        0.0735
     43 C          67.2644   94.9556    8.1701 C.ar    1  UNL1        0.0062
     44 C          66.6416   96.2929    7.8983 C.ar    1  UNL1        0.0003
     45 C          65.6282   96.8557    8.8503 C.ar    1  UNL1        0.0031
     46 C          65.2375   96.0812   10.0741 C.ar    1  UNL1        0.0376
     47 C          65.8603   94.7439   10.3459 C.ar    1  UNL1        0.1485
     48 O          65.4697   93.9695   11.5696 O.2     1  UNL1       -0.4487
     49 O          62.7539   88.1984   18.0820 O.3     1  UNL1       -0.4706
     50 C          62.9310   86.7092   18.1154 C.3     1  UNL1        0.2335
     51 C          63.0536   85.9396   16.8336 C.ar    1  UNL1        0.0403
     52 C          64.3731   85.8702   16.1238 C.ar    1  UNL1        0.0025
     53 C          64.4957   85.1006   14.8421 C.ar    1  UNL1        0.0205
     54 C          63.2987   84.4005   14.2703 C.ar    1  UNL1        0.0989
     55 N          61.9791   84.4699   14.9802 N.ar    1  UNL1       -0.2425
     56 C          61.8566   85.2394   16.2618 C.ar    1  UNL1        0.0982
@<TRIPOS>BOND
     1    30    31    1
     2    31    20    1
     3    20    21   ar
     4    21    22   ar
     5    22    23   ar
     6    23    24   ar
     7    24    25   ar
     8    25    32    1
     9    32    33    1
    10    23    26    1
    11    26    27    1
    12    27    19    1
    13    19    18    1
    14    18    12    1
    15    12    13   ar
    16    13    14   ar
    17    14    15   ar
    18    15     7    1
    19     7     8   ar
    20     8     9   ar
    21     9    10   ar
    22    10     1    1
    23     1     2   ar
    24     2     3   ar
    25     3    49    1
    26    49    50    1
    27    50    51    1
    28    51    52   ar
    29    52    53   ar
    30    53    54   ar
    31    54    55   ar
    32    55    56   ar
    33     3     4   ar
    34     4     5   ar
    35     5     6   ar
    36     6    34    1
    37    34    35   am
    38    35    36    2
    39    35    38    1
    40    38    39   ar
    41    39    40   ar
    42    40    41    2
    43    40    42   ar
    44    42    43   ar
    45    43    44   ar
    46    44    45   ar
    47    45    46   ar
    48    46    47   ar
    49    47    48   ar
    50    10    11   ar
    51    15    16   ar
    52    16    17   ar
    53    27    28    1
    54    28    29    1
    55    25    20   ar
    56    17    12   ar
    57    29    22    1
    58    11     7   ar
    59     6     1   ar
    60    48    38   ar
    61    56    51   ar
    62    47    42   ar
    63    34    37    1
@<TRIPOS>MOLECULE
*****
 56 63 0 0 0
SMALL
GASTEIGER

@<TRIPOS>ATOM
      1 C          63.0936   89.0672   12.2116 C.ar    1  UNL1        0.0558
      2 C          63.4748   90.4826   12.5293 C.ar    1  UNL1        0.0413
      3 C          64.3112   90.7808   13.7383 C.ar    1  UNL1        0.1392
      4 C          64.7663   89.6634   14.6296 C.ar    1  UNL1        0.0382
      5 C          64.3851   88.2480   14.3118 C.ar    1  UNL1        0.0179
      6 C          63.5488   87.9498   13.1029 C.ar    1  UNL1        0.0539
      7 N          61.0145   89.0294    8.9342 N.ar    1  UNL1       -0.1285
      8 N          60.9262   87.5909    9.3501 N.ar    1  UNL1       -0.0406
      9 N          61.6943   87.4299   10.6284 N.ar    1  UNL1       -0.1074
     10 C          62.2573   88.7690   11.0026 C.ar    1  UNL1        0.2075
     11 N          61.8372   89.7575    9.9555 N.ar    1  UNL1       -0.1253
     12 C          59.1403   90.8422    5.2667 C.ar    1  UNL1       -0.0207
     13 C          58.3127   90.0043    6.1957 C.ar    1  UNL1       -0.0026
     14 C          58.9375   89.4001    7.4182 C.ar    1  UNL1        0.0206
     15 C          60.3898   89.6336    7.7117 C.ar    1  UNL1        0.1045
     16 C          61.2174   90.4715    6.7827 C.ar    1  UNL1        0.0206
     17 C          60.5927   91.0757    5.5602 C.ar    1  UNL1       -0.0026
     18 C          58.5156   91.4464    4.0442 C.3     1  UNL1        0.0437
     19 C          58.9823   92.7820    3.5456 C.3     1  UNL1        0.0771
     20 C          63.3571   93.7721   -1.6631 C.ar    1  UNL1        0.1721
     21 C          61.9843   93.1683   -1.6350 C.ar    1  UNL1        0.0356
     22 C          61.2338   93.0717   -0.3399 C.ar    1  UNL1       -0.0202
     23 C          61.8561   93.5789    0.9272 C.ar    1  UNL1       -0.0068
     24 C          63.2290   94.1827    0.8991 C.ar    1  UNL1        0.0368
     25 C          63.9795   94.2792   -0.3960 C.ar    1  UNL1        0.1721
     26 C          61.1056   93.4823    2.2224 C.3     1  UNL1        0.0990
     27 N          59.7328   92.8786    2.2504 N.3     1  UNL1       -0.2683
     28 C          59.1105   92.3714    0.9833 C.3     1  UNL1        0.0771
     29 C          59.8610   92.4680   -0.3118 C.3     1  UNL1        0.0435
     30 C          64.1644   92.6882   -3.8820 C.3     1  UNL1        0.2526
     31 O          64.1077   93.8687   -2.9583 O.3     1  UNL1       -0.4684
     32 O          65.3524   94.8830   -0.4241 O.3     1  UNL1       -0.4684
     33 C          65.5740   96.2671    0.1099 C.3     1  UNL1        0.2526
     34 N          63.1676   86.5342   12.7851 N.am    1  UNL1       -0.2778
     35 C          63.7745   85.4021   13.5598 C.2     1  UNL1        0.2843
     36 O          64.7626   85.6856   14.6521 O.2     1  UNL1       -0.2665
     37 H          62.5191   86.3482   12.0681 H       1  UNL1        0.1553
     38 C          63.3933   83.9866   13.2421 C.ar    1  UNL1        0.2017
     39 C          62.7015   83.1465   14.2743 C.ar    1  UNL1        0.0843
     40 C          62.3203   81.7310   13.9567 C.ar    1  UNL1        0.2018
     41 O          61.6285   80.8908   14.9890 O.2     1  UNL1       -0.2864
     42 C          62.6310   81.1556   12.6068 C.ar    1  UNL1        0.0735
     43 C          62.2498   79.7399   12.2891 C.ar    1  UNL1        0.0062
     44 C          62.5605   79.1645   10.9391 C.ar    1  UNL1        0.0003
     45 C          63.2523   80.0046    9.9069 C.ar    1  UNL1        0.0031
     46 C          63.6335   81.4202   10.2245 C.ar    1  UNL1        0.0376
     47 C          63.3228   81.9957   11.5745 C.ar    1  UNL1        0.1485
     48 O          63.7040   83.4111   11.8921 O.2     1  UNL1       -0.4487
     49 O          64.6923   92.1964   14.0560 O.3     1  UNL1       -0.4706
     50 C          66.0879   92.6758   13.7867 C.3     1  UNL1        0.2335
     51 C          66.4946   93.0561   12.3938 C.ar    1  UNL1        0.0403
     52 C          67.1959   92.0599   11.5189 C.ar    1  UNL1        0.0025
     53 C          67.6026   92.4402   10.1261 C.ar    1  UNL1        0.0205
     54 C          67.3079   93.8167    9.6082 C.ar    1  UNL1        0.0989
     55 N          66.6065   94.8130   10.4831 N.ar    1  UNL1       -0.2425
     56 C          66.1999   94.4327   11.8759 C.ar    1  UNL1        0.0982
@<TRIPOS>BOND
     1    30    31    1
     2    31    20    1
     3    20    21   ar
     4    21    22   ar
     5    22    23   ar
     6    23    24   ar
     7    24    25   ar
     8    25    32    1
     9    32    33    1
    10    23    26    1
    11    26    27    1
    12    27    19    1
    13    19    18    1
    14    18    12    1
    15    12    13   ar
    16    13    14   ar
    17    14    15   ar
    18    15     7    1
    19     7     8   ar
    20     8     9   ar
    21     9    10   ar
    22    10     1    1
    23     1     2   ar
    24     2     3   ar
    25     3    49    1
    26    49    50    1
    27    50    51    1
    28    51    52   ar
    29    52    53   ar
    30    53    54   ar
    31    54    55   ar
    32    55    56   ar
    33     3     4   ar
    34     4     5   ar
    35     5     6   ar
    36     6    34    1
    37    34    35   am
    38    35    36    2
    39    35    38    1
    40    38    39   ar
    41    39    40   ar
    42    40    41    2
    43    40    42   ar
    44    42    43   ar
    45    43    44   ar
    46    44    45   ar
    47    45    46   ar
    48    46    47   ar
    49    47    48   ar
    50    10    11   ar
    51    15    16   ar
    52    16    17   ar
    53    27    28    1
    54    28    29    1
    55    25    20   ar
    56    17    12   ar
    57    29    22    1
    58    11     7   ar
    59     6     1   ar
    60    48    38   ar
    61    56    51   ar
    62    47    42   ar
    63    34    37    1
@<TRIPOS>MOLECULE
*****
 56 63 0 0 0
SMALL
GASTEIGER

@<TRIPOS>ATOM
      1 C          62.7696   84.7239   12.7447 C.ar    1  UNL1        0.0558
      2 C          62.2645   83.3620   13.1186 C.ar    1  UNL1        0.0413
      3 C          62.4541   82.8491   14.5154 C.ar    1  UNL1        0.1392
      4 C          63.1487   83.6983   15.5383 C.ar    1  UNL1        0.0382
      5 C          63.6538   85.0602   15.1644 C.ar    1  UNL1        0.0179
      6 C          63.4642   85.5731   13.7676 C.ar    1  UNL1        0.0539
      7 N          61.7307   86.4675    9.4362 N.ar    1  UNL1       -0.1285
      8 N          62.8461   85.5845    8.9606 N.ar    1  UNL1       -0.0406
      9 N          63.3710   84.8239   10.1421 N.ar    1  UNL1       -0.1074
     10 C          62.5800   85.2368   11.3479 C.ar    1  UNL1        0.2075
     11 N          61.5662   86.2526   10.9116 N.ar    1  UNL1       -0.1253
     12 C          59.3037   89.2692    6.8846 C.ar    1  UNL1       -0.0207
     13 C          59.3090   87.7988    6.5879 C.ar    1  UNL1       -0.0026
     14 C          60.1180   86.8649    7.4385 C.ar    1  UNL1        0.0206
     15 C          60.9217   87.4014    8.5857 C.ar    1  UNL1        0.1045
     16 C          60.9165   88.8717    8.8824 C.ar    1  UNL1        0.0206
     17 C          60.1075   89.8056    8.0319 C.ar    1  UNL1       -0.0026
     18 C          58.4948   90.2030    6.0341 C.3     1  UNL1        0.0437
     19 C          58.9765   91.6024    5.7897 C.3     1  UNL1        0.0771
     20 C          62.6511   93.1611    0.1934 C.ar    1  UNL1        0.1721
     21 C          61.1682   93.1248    0.4157 C.ar    1  UNL1        0.0356
     22 C          60.6202   92.7442    1.7592 C.ar    1  UNL1       -0.0202
     23 C          61.5553   92.3998    2.8804 C.ar    1  UNL1       -0.0068
     24 C          63.0384   92.4361    2.6580 C.ar    1  UNL1        0.0368
     25 C          63.5862   92.8167    1.3146 C.ar    1  UNL1        0.1721
     26 C          61.0074   92.0192    4.2238 C.3     1  UNL1        0.0990
     27 N          59.5245   91.9830    4.4462 N.3     1  UNL1       -0.2683
     28 C          58.5894   92.3274    3.3250 C.3     1  UNL1        0.0771
     29 C          59.1373   92.7080    1.9815 C.3     1  UNL1        0.0435
     30 C          62.6875   94.7662   -1.8492 C.3     1  UNL1        0.2526
     31 O          63.1991   93.5417   -1.1501 O.3     1  UNL1       -0.4684
     32 O          65.0693   92.8529    1.0922 O.3     1  UNL1       -0.4684
     33 C          65.7650   94.1659    0.8873 C.3     1  UNL1        0.2526
     34 N          63.9693   86.9352   13.3937 N.am    1  UNL1       -0.2778
     35 C          63.9185   88.0539   14.3917 C.2     1  UNL1        0.2843
     36 O          63.3626   87.8107   15.7634 O.2     1  UNL1       -0.2665
     37 H          64.3342   87.0949   12.4934 H       1  UNL1        0.1553
     38 C          64.4236   89.4160   14.0178 C.ar    1  UNL1        0.2017
     39 C          65.1376   90.2562   15.0347 C.ar    1  UNL1        0.0843
     40 C          65.6427   91.6182   14.6610 C.ar    1  UNL1        0.2018
     41 O          66.3568   92.4585   15.6779 O.2     1  UNL1       -0.2864
     42 C          65.4337   92.1400   13.2703 C.ar    1  UNL1        0.0735
     43 C          65.9388   93.5021   12.8965 C.ar    1  UNL1        0.0062
     44 C          65.7298   94.0239   11.5058 C.ar    1  UNL1        0.0003
     45 C          65.0158   93.1837   10.4889 C.ar    1  UNL1        0.0031
     46 C          64.5107   91.8216   10.8627 C.ar    1  UNL1        0.0376
     47 C          64.7196   91.2998   12.2534 C.ar    1  UNL1        0.1485
     48 O          64.2146   89.9378   12.6271 O.2     1  UNL1       -0.4487
     49 O          61.9490   81.4871   14.8892 O.3     1  UNL1       -0.4706
     50 C          62.6109   80.2623   14.3307 C.3     1  UNL1        0.2335
     51 C          62.7302   80.0853   12.8459 C.ar    1  UNL1        0.0403
     52 C          63.1242   81.2461   11.9816 C.ar    1  UNL1        0.0025
     53 C          63.2436   81.0692   10.4968 C.ar    1  UNL1        0.0205
     54 C          62.9689   79.7314    9.8765 C.ar    1  UNL1        0.0989
     55 N          62.5749   78.5705   10.7409 N.ar    1  UNL1       -0.2425
     56 C          62.4556   78.7475   12.2256 C.ar    1  UNL1        0.0982
@<TRIPOS>BOND
     1    30    31    1
     2    31    20    1
     3    20    21   ar
     4    21    22   ar
     5    22    23   ar
     6    23    24   ar
     7    24    25   ar
     8    25    32    1
     9    32    33    1
    10    23    26    1
    11    26    27    1
    12    27    19    1
    13    19    18    1
    14    18    12    1
    15    12    13   ar
    16    13    14   ar
    17    14    15   ar
    18    15     7    1
    19     7     8   ar
    20     8     9   ar
    21     9    10   ar
    22    10     1    1
    23     1     2   ar
    24     2     3   ar
    25     3    49    1
    26    49    50    1
    27    50    51    1
    28    51    52   ar
    29    52    53   ar
    30    53    54   ar
    31    54    55   ar
    32    55    56   ar
    33     3     4   ar
    34     4     5   ar
    35     5     6   ar
    36     6    34    1
    37    34    35   am
    38    35    36    2
    39    35    38    1
    40    38    39   ar
    41    39    40   ar
    42    40    41    2
    43    40    42   ar
    44    42    43   ar
    45    43    44   ar
    46    44    45   ar
    47    45    46   ar
    48    46    47   ar
    49    47    48   ar
    50    10    11   ar
    51    15    16   ar
    52    16    17   ar
    53    27    28    1
    54    28    29    1
    55    25    20   ar
    56    17    12   ar
    57    29    22    1
    58    11     7   ar
    59     6     1   ar
    60    48    38   ar
    61    56    51   ar
    62    47    42   ar
    63    34    37    1
@<TRIPOS>MOLECULE
*****
 56 63 0 0 0
SMALL
GASTEIGER

@<TRIPOS>ATOM
      1 C          62.4225   85.5693   13.2817 C.ar    1  UNL1        0.0558
      2 C          61.9013   84.1950   13.5809 C.ar    1  UNL1        0.0413
      3 C          62.7657   83.2064   14.3057 C.ar    1  UNL1        0.1392
      4 C          64.1514   83.5921   14.7313 C.ar    1  UNL1        0.0382
      5 C          64.6726   84.9663   14.4321 C.ar    1  UNL1        0.0179
      6 C          63.8082   85.9550   13.7073 C.ar    1  UNL1        0.0539
      7 N          60.5091   87.8453   10.7869 N.ar    1  UNL1       -0.1285
      8 N          59.9466   88.3134   12.0962 N.ar    1  UNL1       -0.0406
      9 N          60.5949   87.5178   13.1902 N.ar    1  UNL1       -0.1074
     10 C          61.5581   86.5579   12.5569 C.ar    1  UNL1        0.2075
     11 N          61.5050   86.7603   11.0716 N.ar    1  UNL1       -0.1253
     12 C          59.4029   89.4193    6.7188 C.ar    1  UNL1       -0.0207
     13 C          59.0521   88.0113    7.0991 C.ar    1  UNL1       -0.0026
     14 C          59.4209   87.4866    8.4551 C.ar    1  UNL1        0.0206
     15 C          60.1403   88.3699    9.4309 C.ar    1  UNL1        0.1045
     16 C          60.4911   89.7779    9.0507 C.ar    1  UNL1        0.0206
     17 C          60.1223   90.3026    7.6947 C.ar    1  UNL1       -0.0026
     18 C          59.0341   89.9440    5.3629 C.3     1  UNL1        0.0437
     19 C          59.0972   91.4168    5.0860 C.3     1  UNL1        0.0771
     20 C          62.2593   94.4219   -0.2263 C.ar    1  UNL1        0.1721
     21 C          62.7877   93.5172    0.8471 C.ar    1  UNL1        0.0356
     22 C          61.8651   92.9921    1.9068 C.ar    1  UNL1       -0.0202
     23 C          60.4140   93.3717    1.8932 C.ar    1  UNL1       -0.0068
     24 C          59.8856   94.2765    0.8197 C.ar    1  UNL1        0.0368
     25 C          60.8082   94.8016   -0.2400 C.ar    1  UNL1        0.1721
     26 C          59.4914   92.8467    2.9529 C.3     1  UNL1        0.0990
     27 N          60.0198   91.9419    4.0262 N.3     1  UNL1       -0.2683
     28 C          61.4709   91.5623    4.0399 C.3     1  UNL1        0.0771
     29 C          62.3935   92.0873    2.9802 C.3     1  UNL1        0.0435
     30 C          63.8280   94.0007   -2.2541 C.3     1  UNL1        0.2526
     31 O          63.1820   94.9470   -1.2861 O.3     1  UNL1       -0.4684
     32 O          60.2798   95.7064   -1.3134 O.3     1  UNL1       -0.4684
     33 C          60.1372   95.2000   -2.7181 C.3     1  UNL1        0.2526
     34 N          64.3294   87.3294   13.4081 N.am    1  UNL1       -0.2778
     35 C          64.1625   88.4301   14.4134 C.2     1  UNL1        0.2843
     36 O          63.4744   88.1565   15.7178 O.2     1  UNL1       -0.2665
     37 H          64.7811   87.5090   12.5519 H       1  UNL1        0.1553
     38 C          64.6837   89.8044   14.1142 C.ar    1  UNL1        0.2017
     39 C          65.2973   90.6282   15.2073 C.ar    1  UNL1        0.0843
     40 C          65.8185   92.0025   14.9083 C.ar    1  UNL1        0.2018
     41 O          66.4322   92.8263   16.0014 O.2     1  UNL1       -0.2864
     42 C          65.7261   92.5531   13.5160 C.ar    1  UNL1        0.0735
     43 C          66.2474   93.9275   13.2169 C.ar    1  UNL1        0.0062
     44 C          66.1549   94.4781   11.8247 C.ar    1  UNL1        0.0003
     45 C          65.5413   93.6544   10.7316 C.ar    1  UNL1        0.0031
     46 C          65.0200   92.2800   11.0307 C.ar    1  UNL1        0.0376
     47 C          65.1125   91.7294   12.4229 C.ar    1  UNL1        0.1485
     48 O          64.5913   90.3551   12.7220 O.2     1  UNL1       -0.4487
     49 O          62.2445   81.8321   14.6049 O.3     1  UNL1       -0.4706
     50 C          62.9656   80.6258   14.0805 C.3     1  UNL1        0.2335
     51 C          62.9249   80.3055   12.6156 C.ar    1  UNL1        0.0403
     52 C          63.2251   81.3733   11.6060 C.ar    1  UNL1        0.0025
     53 C          63.1845   81.0532   10.1411 C.ar    1  UNL1        0.0205
     54 C          62.8436   79.6652    9.6860 C.ar    1  UNL1        0.0989
     55 N          62.5433   78.5973   10.6957 N.ar    1  UNL1       -0.2425
     56 C          62.5840   78.9175   12.1605 C.ar    1  UNL1        0.0982
@<TRIPOS>BOND
     1    30    31    1
     2    31    20    1
     3    20    21   ar
     4    21    22   ar
     5    22    23   ar
     6    23    24   ar
     7    24    25   ar
     8    25    32    1
     9    32    33    1
    10    23    26    1
    11    26    27    1
    12    27    19    1
    13    19    18    1
    14    18    12    1
    15    12    13   ar
    16    13    14   ar
    17    14    15   ar
    18    15     7    1
    19     7     8   ar
    20     8     9   ar
    21     9    10   ar
    22    10     1    1
    23     1     2   ar
    24     2     3   ar
    25     3    49    1
    26    49    50    1
    27    50    51    1
    28    51    52   ar
    29    52    53   ar
    30    53    54   ar
    31    54    55   ar
    32    55    56   ar
    33     3     4   ar
    34     4     5   ar
    35     5     6   ar
    36     6    34    1
    37    34    35   am
    38    35    36    2
    39    35    38    1
    40    38    39   ar
    41    39    40   ar
    42    40    41    2
    43    40    42   ar
    44    42    43   ar
    45    43    44   ar
    46    44    45   ar
    47    45    46   ar
    48    46    47   ar
    49    47    48   ar
    50    10    11   ar
    51    15    16   ar
    52    16    17   ar
    53    27    28    1
    54    28    29    1
    55    25    20   ar
    56    17    12   ar
    57    29    22    1
    58    11     7   ar
    59     6     1   ar
    60    48    38   ar
    61    56    51   ar
    62    47    42   ar
    63    34    37    1
@<TRIPOS>MOLECULE
*****
 56 63 0 0 0
SMALL
GASTEIGER

@<TRIPOS>ATOM
      1 C          62.9817   89.1163   12.2506 C.ar    1  UNL1        0.0558
      2 C          63.3331   90.5253   12.6260 C.ar    1  UNL1        0.0413
      3 C          64.1949   90.7895   13.8249 C.ar    1  UNL1        0.1392
      4 C          64.7054   89.6445   14.6486 C.ar    1  UNL1        0.0382
      5 C          64.3541   88.2354   14.2732 C.ar    1  UNL1        0.0179
      6 C          63.4923   87.9713   13.0743 C.ar    1  UNL1        0.0539
      7 N          60.9397   89.1349    8.9499 N.ar    1  UNL1       -0.1285
      8 N          60.6477   87.7562    9.4635 N.ar    1  UNL1       -0.0406
      9 N          61.3772   87.5813   10.7625 N.ar    1  UNL1       -0.1074
     10 C          62.1199   88.8521   11.0517 C.ar    1  UNL1        0.2075
     11 N          61.8495   89.8122    9.9314 N.ar    1  UNL1       -0.1253
     12 C          59.3628   90.9250    5.1343 C.ar    1  UNL1       -0.0207
     13 C          60.7966   91.1320    5.5233 C.ar    1  UNL1       -0.0026
     14 C          61.3222   90.5353    6.7953 C.ar    1  UNL1        0.0206
     15 C          60.4140   89.7316    7.6780 C.ar    1  UNL1        0.1045
     16 C          58.9802   89.5246    7.2889 C.ar    1  UNL1        0.0206
     17 C          58.4546   90.1213    6.0171 C.ar    1  UNL1       -0.0026
     18 C          58.8371   91.5217    3.8624 C.3     1  UNL1        0.0437
     19 C          59.5674   92.6572    3.2088 C.3     1  UNL1        0.0771
     20 C          58.3599   93.6317   -3.4877 C.ar    1  UNL1        0.1721
     21 C          59.5909   93.1634   -2.7698 C.ar    1  UNL1        0.0356
     22 C          59.5851   93.0369   -1.2751 C.ar    1  UNL1       -0.0202
     23 C          58.3482   93.3786   -0.4984 C.ar    1  UNL1       -0.0068
     24 C          57.1171   93.8468   -1.2163 C.ar    1  UNL1        0.0368
     25 C          57.1230   93.9734   -2.7109 C.ar    1  UNL1        0.1721
     26 C          58.3423   93.2520    0.9962 C.3     1  UNL1        0.0990
     27 N          59.5733   92.7838    1.7141 N.3     1  UNL1       -0.2683
     28 C          60.8102   92.4421    0.9373 C.3     1  UNL1        0.0771
     29 C          60.8161   92.5686   -0.5573 C.3     1  UNL1        0.0435
     30 C          57.6321   92.7556   -5.8228 C.3     1  UNL1        0.2526
     31 O          58.3658   93.7583   -4.9824 O.3     1  UNL1       -0.4684
     32 O          55.8920   94.4416   -3.4289 O.3     1  UNL1       -0.4684
     33 C          54.8158   95.1675   -2.6772 C.3     1  UNL1        0.2526
     34 N          63.1409   86.5620   12.6989 N.am    1  UNL1       -0.2778
     35 C          63.5752   85.4227   13.5726 C.2     1  UNL1        0.2843
     36 O          64.3608   85.6925   14.8216 O.2     1  UNL1       -0.2665
     37 H          62.6253   86.3849   11.8792 H       1  UNL1        0.1553
     38 C          63.2239   84.0136   13.1974 C.ar    1  UNL1        0.2017
     39 C          62.4720   83.1457   14.1624 C.ar    1  UNL1        0.0843
     40 C          62.1207   81.7366   13.7872 C.ar    1  UNL1        0.2018
     41 O          61.3687   80.8686   14.7523 O.2     1  UNL1       -0.2864
     42 C          62.5214   81.1953   12.4469 C.ar    1  UNL1        0.0735
     43 C          62.1700   79.7860   12.0716 C.ar    1  UNL1        0.0062
     44 C          62.5707   79.2447   10.7313 C.ar    1  UNL1        0.0003
     45 C          63.3227   80.1126    9.7662 C.ar    1  UNL1        0.0031
     46 C          63.6740   81.5218   10.1415 C.ar    1  UNL1        0.0376
     47 C          63.2733   82.0631   11.4818 C.ar    1  UNL1        0.1485
     48 O          63.6246   83.4722   11.8570 O.2     1  UNL1       -0.4487
     49 O          64.5461   92.1987   14.2002 O.3     1  UNL1       -0.4706
     50 C          65.9412   92.7065   13.9855 C.3     1  UNL1        0.2335
     51 C          66.5300   92.7210   12.6059 C.ar    1  UNL1        0.0403
     52 C          65.7721   93.3481   11.4736 C.ar    1  UNL1        0.0025
     53 C          66.3609   93.3627   10.0941 C.ar    1  UNL1        0.0205
     54 C          67.7076   92.7502    9.8470 C.ar    1  UNL1        0.0989
     55 N          68.4656   92.1231   10.9793 N.ar    1  UNL1       -0.2425
     56 C          67.8768   92.1085   12.3588 C.ar    1  UNL1        0.0982
@<TRIPOS>BOND
     1    30    31    1
     2    31    20    1
     3    20    21   ar
     4    21    22   ar
     5    22    23   ar
     6    23    24   ar
     7    24    25   ar
     8    25    32    1
     9    32    33    1
    10    23    26    1
    11    26    27    1
    12    27    19    1
    13    19    18    1
    14    18    12    1
    15    12    13   ar
    16    13    14   ar
    17    14    15   ar
    18    15     7    1
    19     7     8   ar
    20     8     9   ar
    21     9    10   ar
    22    10     1    1
    23     1     2   ar
    24     2     3   ar
    25     3    49    1
    26    49    50    1
    27    50    51    1
    28    51    52   ar
    29    52    53   ar
    30    53    54   ar
    31    54    55   ar
    32    55    56   ar
    33     3     4   ar
    34     4     5   ar
    35     5     6   ar
    36     6    34    1
    37    34    35   am
    38    35    36    2
    39    35    38    1
    40    38    39   ar
    41    39    40   ar
    42    40    41    2
    43    40    42   ar
    44    42    43   ar
    45    43    44   ar
    46    44    45   ar
    47    45    46   ar
    48    46    47   ar
    49    47    48   ar
    50    10    11   ar
    51    15    16   ar
    52    16    17   ar
    53    27    28    1
    54    28    29    1
    55    25    20   ar
    56    17    12   ar
    57    29    22    1
    58    11     7   ar
    59     6     1   ar
    60    48    38   ar
    61    56    51   ar
    62    47    42   ar
    63    34    37    1
