@<TRIPOS>MOLECULE
*****
 35 39 0 0 0
SMALL
GASTEIGER

@<TRIPOS>ATOM
      1 C          61.3130   87.9698    9.7624 C.3     1  UNL1        0.2246
      2 C          61.5937   86.5996    9.2203 C.2     1  UNL1        0.0436
      3 C          60.6934   86.0068    8.1772 C.2     1  UNL1        0.0288
      4 C          59.5124   86.7841    7.6762 C.2     1  UNL1        0.0896
      5 N          59.2316   88.1542    8.2182 N.am    1  UNL1       -0.1770
      6 C          60.1320   88.7470    9.2614 C.2     1  UNL1        0.2627
      7 O          59.8513   90.1172    9.8034 O.2     1  UNL1       -0.2719
      8 C          64.0724   87.5149   14.9838 C.3     1  UNL1        0.0313
      9 C          64.2253   88.7516   14.1489 C.2     1  UNL1        0.0138
     10 C          65.0814   89.8834   14.6348 C.2     1  UNL1        0.0138
     11 C          65.2343   91.1201   13.7999 C.2     1  UNL1        0.0686
     12 C          64.5312   91.2251   12.4790 C.2     1  UNL1        0.0643
     13 C          63.6751   90.0933   11.9932 C.2     1  UNL1        0.2248
     14 N          62.8661   89.9117   10.7431 N.2     1  UNL1       -0.0377
     15 C          62.2133   88.5626   10.8055 C.2     1  UNL1        0.3605
     16 N          62.6187   87.9105   12.0940 N.2     1  UNL1       -0.0547
     17 C          63.5221   88.8565   12.8281 C.3     1  UNL1        0.2976
     18 N          66.0905   92.2519   14.2858 N.ar    1  UNL1       -0.2863
     19 C          66.7997   92.3172   15.6060 C.ar    1  UNL1        0.1022
     20 C          67.5352   93.6228   15.6729 C.ar    1  UNL1        0.1196
     21 N          67.2807   94.3644   14.3942 N.ar    1  UNL1       -0.2220
     22 C          66.3878   93.5171   13.5369 C.ar    1  UNL1        0.1828
     23 N          62.7747   85.8223    9.7213 N.pl3   1  UNL1       -0.3329
     24 H          63.5344   86.2928   10.1344 H       1  UNL1        0.1466
     25 C          62.7983   84.3280    9.5928 C.3     1  UNL1        0.1211
     26 C          63.6304   83.5074   10.5331 C.3     1  UNL1        0.1522
     27 O          64.9059   82.8804   10.0537 O.3     1  UNL1       -0.3783
     28 H          65.0440   83.1022    9.1195 H       1  UNL1        0.2109
     29 C          63.1869   83.3139   11.9529 C.ar    1  UNL1        0.0067
     30 C          63.5404   84.3335   12.9947 C.ar    1  UNL1       -0.0018
     31 C          63.0969   84.1399   14.4145 C.ar    1  UNL1        0.0006
     32 C          62.2999   82.9267   14.7926 C.ar    1  UNL1        0.0114
     33 C          61.9465   81.9071   13.7508 C.ar    1  UNL1        0.0574
     34 CL         61.1495   80.6939   14.1289 Cl      1  UNL1       -0.0823
     35 C          62.3899   82.1006   12.3310 C.ar    1  UNL1        0.0095
@<TRIPOS>BOND
     1     8     9    1
     2     9    10    2
     3    10    11    1
     4    11    18    1
     5    18    19   ar
     6    19    20   ar
     7    20    21   ar
     8    21    22   ar
     9    11    12    2
    10    12    13    1
    11    13    14    2
    12    14    15    1
    13    15     1    1
    14     1     2    1
    15     2    23    1
    16    23    25    1
    17    25    26    1
    18    26    27    1
    19    26    29    1
    20    29    30   ar
    21    30    31   ar
    22    31    32   ar
    23    32    33   ar
    24    33    34    1
    25    33    35   ar
    26     2     3    2
    27     3     4    1
    28     4     5    2
    29     5     6    1
    30     6     7    2
    31    15    16    2
    32    16    17    1
    33    17     9    1
    34    22    18   ar
    35    17    13    1
    36     6     1    1
    37    35    29   ar
    38    23    24    1
    39    27    28    1
@<TRIPOS>MOLECULE
*****
 35 39 0 0 0
SMALL
GASTEIGER

@<TRIPOS>ATOM
      1 C          61.3298   88.2120    9.8708 C.3     1  UNL1        0.2246
      2 C          61.5571   86.8518    9.2810 C.2     1  UNL1        0.0436
      3 C          60.6479   86.3403    8.2031 C.2     1  UNL1        0.0288
      4 C          59.5115   87.1890    7.7151 C.2     1  UNL1        0.0896
      5 N          59.2842   88.5493    8.3049 N.am    1  UNL1       -0.1770
      6 C          60.1933   89.0608    9.3828 C.2     1  UNL1        0.2627
      7 O          59.9660   90.4210    9.9727 O.2     1  UNL1       -0.2719
      8 C          64.1712   87.3419   14.9947 C.3     1  UNL1        0.0313
      9 C          64.2982   88.6479   14.2678 C.2     1  UNL1        0.0138
     10 C          65.1490   89.7438   14.8378 C.2     1  UNL1        0.0138
     11 C          65.2760   91.0497   14.1109 C.2     1  UNL1        0.0686
     12 C          64.5522   91.2597   12.8139 C.2     1  UNL1        0.0643
     13 C          63.7014   90.1637   12.2439 C.2     1  UNL1        0.2248
     14 N          62.8760   90.0808   10.9942 N.2     1  UNL1       -0.0377
     15 C          62.2389   88.7236   10.9487 C.2     1  UNL1        0.3605
     16 N          62.6705   87.9677   12.1704 N.2     1  UNL1       -0.0547
     17 C          63.5744   88.8578   12.9709 C.3     1  UNL1        0.2976
     18 N          66.1269   92.1458   14.6810 N.ar    1  UNL1       -0.2863
     19 C          66.9790   93.0989   13.8965 C.ar    1  UNL1        0.1022
     20 C          67.6537   94.0232   14.8662 C.ar    1  UNL1        0.1196
     21 N          67.2186   93.6414   16.2500 N.ar    1  UNL1       -0.2220
     22 C          66.2750   92.4810   16.1355 C.ar    1  UNL1        0.1828
     23 N          62.6935   86.0030    9.7689 N.pl3   1  UNL1       -0.3329
     24 H          63.6037   86.3758    9.8107 H       1  UNL1        0.1466
     25 C          62.4432   84.5862   10.1932 C.3     1  UNL1        0.1211
     26 C          62.5246   84.2122   11.6436 C.3     1  UNL1        0.1522
     27 O          62.5811   85.2831   12.6923 O.3     1  UNL1       -0.3783
     28 H          62.5558   86.1543   12.2665 H       1  UNL1        0.2109
     29 C          62.5496   82.7672   12.0451 C.ar    1  UNL1        0.0067
     30 C          62.3746   82.3857   13.4852 C.ar    1  UNL1       -0.0018
     31 C          62.3995   80.9407   13.8868 C.ar    1  UNL1        0.0006
     32 C          62.5995   79.8770   12.8482 C.ar    1  UNL1        0.0114
     33 C          62.7745   80.2584   11.4082 C.ar    1  UNL1        0.0574
     34 CL         62.9745   79.1947   10.3696 Cl      1  UNL1       -0.0823
     35 C          62.7495   81.7034   11.0066 C.ar    1  UNL1        0.0095
@<TRIPOS>BOND
     1     8     9    1
     2     9    10    2
     3    10    11    1
     4    11    18    1
     5    18    19   ar
     6    19    20   ar
     7    20    21   ar
     8    21    22   ar
     9    11    12    2
    10    12    13    1
    11    13    14    2
    12    14    15    1
    13    15     1    1
    14     1     2    1
    15     2    23    1
    16    23    25    1
    17    25    26    1
    18    26    27    1
    19    26    29    1
    20    29    30   ar
    21    30    31   ar
    22    31    32   ar
    23    32    33   ar
    24    33    34    1
    25    33    35   ar
    26     2     3    2
    27     3     4    1
    28     4     5    2
    29     5     6    1
    30     6     7    2
    31    15    16    2
    32    16    17    1
    33    17     9    1
    34    22    18   ar
    35    17    13    1
    36     6     1    1
    37    35    29   ar
    38    23    24    1
    39    27    28    1
@<TRIPOS>MOLECULE
*****
 35 39 0 0 0
SMALL
GASTEIGER

@<TRIPOS>ATOM
      1 C          64.5408   90.9662   14.4364 C.3     1  UNL1        0.2246
      2 C          65.5501   91.9167   13.8637 C.2     1  UNL1        0.0436
      3 C          66.1812   92.9579   14.7398 C.2     1  UNL1        0.0288
      4 C          65.8031   93.0487   16.1885 C.2     1  UNL1        0.0896
      5 N          64.7938   92.0983   16.7612 N.am    1  UNL1       -0.1770
      6 C          64.1626   91.0570   15.8851 C.2     1  UNL1        0.2627
      7 O          63.1534   90.1066   16.4577 O.2     1  UNL1       -0.2719
      8 C          63.5430   85.2622   13.1900 C.3     1  UNL1        0.0313
      9 C          62.9674   86.3416   12.3218 C.2     1  UNL1        0.0138
     10 C          62.1330   85.9795   11.1291 C.2     1  UNL1        0.0138
     11 C          61.5574   87.0587   10.2609 C.2     1  UNL1        0.0686
     12 C          61.8162   88.5002   10.5855 C.2     1  UNL1        0.0643
     13 C          62.6506   88.8623   11.7782 C.2     1  UNL1        0.2248
     14 N          63.0729   90.1861   12.3431 N.2     1  UNL1       -0.0377
     15 C          63.9096   89.9250   13.5603 C.2     1  UNL1        0.3605
     16 N          64.0043   88.4397   13.7478 N.2     1  UNL1       -0.0547
     17 C          63.2262   87.7830   12.6464 C.3     1  UNL1        0.2976
     18 N          60.7229   86.6966    9.0681 N.ar    1  UNL1       -0.2863
     19 C          59.4031   87.3056    8.6979 C.ar    1  UNL1        0.1022
     20 C          58.9263   86.6473    7.4372 C.ar    1  UNL1        0.1196
     21 N          59.9515   85.6316    7.0283 N.ar    1  UNL1       -0.2220
     22 C          61.0619   85.6621    8.0363 C.ar    1  UNL1        0.1828
     23 N          65.9283   91.8259   12.4150 N.pl3   1  UNL1       -0.3329
     24 H          65.2435   91.6151   11.7398 H       1  UNL1        0.1466
     25 C          67.3497   92.0565   11.9951 C.3     1  UNL1        0.1211
     26 C          67.6463   92.6909   10.6686 C.3     1  UNL1        0.1522
     27 O          68.4323   91.9383    9.6363 O.3     1  UNL1       -0.3783
     28 H          68.6696   91.0645    9.9842 H       1  UNL1        0.2109
     29 C          67.1569   94.0780   10.3745 C.ar    1  UNL1        0.0067
     30 C          66.2421   94.7711   11.3402 C.ar    1  UNL1       -0.0018
     31 C          65.7527   96.1582   11.0462 C.ar    1  UNL1        0.0006
     32 C          66.1781   96.8522    9.7863 C.ar    1  UNL1        0.0114
     33 C          67.0930   96.1591    8.8205 C.ar    1  UNL1        0.0574
     34 CL         67.5184   96.8532    7.5607 Cl      1  UNL1       -0.0823
     35 C          67.5823   94.7720    9.1146 C.ar    1  UNL1        0.0095
@<TRIPOS>BOND
     1     8     9    1
     2     9    10    2
     3    10    11    1
     4    11    18    1
     5    18    19   ar
     6    19    20   ar
     7    20    21   ar
     8    21    22   ar
     9    11    12    2
    10    12    13    1
    11    13    14    2
    12    14    15    1
    13    15     1    1
    14     1     2    1
    15     2    23    1
    16    23    25    1
    17    25    26    1
    18    26    27    1
    19    26    29    1
    20    29    30   ar
    21    30    31   ar
    22    31    32   ar
    23    32    33   ar
    24    33    34    1
    25    33    35   ar
    26     2     3    2
    27     3     4    1
    28     4     5    2
    29     5     6    1
    30     6     7    2
    31    15    16    2
    32    16    17    1
    33    17     9    1
    34    22    18   ar
    35    17    13    1
    36     6     1    1
    37    35    29   ar
    38    23    24    1
    39    27    28    1
@<TRIPOS>MOLECULE
*****
 35 39 0 0 0
SMALL
GASTEIGER

@<TRIPOS>ATOM
      1 C          63.9941   89.9012   14.9044 C.3     1  UNL1        0.2246
      2 C          64.8456   91.0187   14.3790 C.2     1  UNL1        0.0436
      3 C          65.1401   92.2079   15.2445 C.2     1  UNL1        0.0288
      4 C          64.5831   92.2796   16.6354 C.2     1  UNL1        0.0896
      5 N          63.7316   91.1621   17.1608 N.am    1  UNL1       -0.1770
      6 C          63.4371   89.9729   16.2953 C.2     1  UNL1        0.2627
      7 O          62.5856   88.8554   16.8207 O.2     1  UNL1       -0.2719
      8 C          61.9609   87.6724    9.8070 C.3     1  UNL1        0.0313
      9 C          62.4760   86.7623   10.8823 C.2     1  UNL1        0.0138
     10 C          62.4785   85.2773   10.6705 C.2     1  UNL1        0.0138
     11 C          62.9936   84.3672   11.7457 C.2     1  UNL1        0.0686
     12 C          63.5063   84.9420   13.0329 C.2     1  UNL1        0.0643
     13 C          63.5038   86.4269   13.2448 C.2     1  UNL1        0.2248
     14 N          63.9432   87.2766   14.4002 N.2     1  UNL1       -0.0377
     15 C          63.6995   88.7119   14.0390 C.2     1  UNL1        0.3605
     16 N          63.1096   88.7493   12.6603 N.2     1  UNL1       -0.0547
     17 C          62.9887   87.3371   12.1695 C.3     1  UNL1        0.2976
     18 N          62.9961   82.8822   11.5338 N.ar    1  UNL1       -0.2863
     19 C          62.5804   81.8477   12.5374 C.ar    1  UNL1        0.1022
     20 C          62.7421   80.4972   11.9050 C.ar    1  UNL1        0.1196
     21 N          63.2577   80.6969   10.5107 N.ar    1  UNL1       -0.2220
     22 C          63.4147   82.1709   10.2813 C.ar    1  UNL1        0.1828
     23 N          65.4026   90.9470   12.9881 N.pl3   1  UNL1       -0.3329
     24 H          66.0205   90.2211   12.7421 H       1  UNL1        0.1466
     25 C          65.0184   91.9814   11.9720 C.3     1  UNL1        0.1211
     26 C          65.8144   93.2470   11.8522 C.3     1  UNL1        0.1522
     27 O          65.7709   94.2673   12.9510 O.3     1  UNL1       -0.3783
     28 H          65.1858   93.9553   13.6589 H       1  UNL1        0.2109
     29 C          66.6540   93.4924   10.6337 C.ar    1  UNL1        0.0067
     30 C          67.5614   92.4148   10.1186 C.ar    1  UNL1       -0.0018
     31 C          68.4010   92.6602    8.9001 C.ar    1  UNL1        0.0006
     32 C          68.3333   93.9833    8.1966 C.ar    1  UNL1        0.0114
     33 C          67.4259   95.0609    8.7117 C.ar    1  UNL1        0.0574
     34 CL         67.3582   96.3840    8.0082 Cl      1  UNL1       -0.0823
     35 C          66.5863   94.8155    9.9302 C.ar    1  UNL1        0.0095
@<TRIPOS>BOND
     1     8     9    1
     2     9    10    2
     3    10    11    1
     4    11    18    1
     5    18    19   ar
     6    19    20   ar
     7    20    21   ar
     8    21    22   ar
     9    11    12    2
    10    12    13    1
    11    13    14    2
    12    14    15    1
    13    15     1    1
    14     1     2    1
    15     2    23    1
    16    23    25    1
    17    25    26    1
    18    26    27    1
    19    26    29    1
    20    29    30   ar
    21    30    31   ar
    22    31    32   ar
    23    32    33   ar
    24    33    34    1
    25    33    35   ar
    26     2     3    2
    27     3     4    1
    28     4     5    2
    29     5     6    1
    30     6     7    2
    31    15    16    2
    32    16    17    1
    33    17     9    1
    34    22    18   ar
    35    17    13    1
    36     6     1    1
    37    35    29   ar
    38    23    24    1
    39    27    28    1
@<TRIPOS>MOLECULE
*****
 35 39 0 0 0
SMALL
GASTEIGER

@<TRIPOS>ATOM
      1 C          64.2286   90.0970   13.0471 C.3     1  UNL1        0.2246
      2 C          63.6221   90.5671   11.7582 C.2     1  UNL1        0.0436
      3 C          63.9302   91.9412   11.2416 C.2     1  UNL1        0.0288
      4 C          64.8448   92.8452   12.0138 C.2     1  UNL1        0.0896
      5 N          65.4513   92.3752   13.3026 N.am    1  UNL1       -0.1770
      6 C          65.1432   91.0010   13.8192 C.2     1  UNL1        0.2627
      7 O          65.7498   90.5309   15.1081 O.2     1  UNL1       -0.2719
      8 C          63.1086   86.4878   17.6082 C.3     1  UNL1        0.0313
      9 C          63.1442   85.9531   16.2072 C.2     1  UNL1        0.0138
     10 C          62.8953   84.4957   15.9542 C.2     1  UNL1        0.0138
     11 C          62.9310   83.9610   14.5533 C.2     1  UNL1        0.0686
     12 C          63.2155   84.8836   13.4052 C.2     1  UNL1        0.0643
     13 C          63.4645   86.3410   13.6583 C.2     1  UNL1        0.2248
     14 N          63.7684   87.4825   12.7340 N.2     1  UNL1       -0.0377
     15 C          63.9206   88.7228   13.5637 C.2     1  UNL1        0.3605
     16 N          63.7107   88.3478   15.0008 N.2     1  UNL1       -0.0547
     17 C          63.4288   86.8757   15.0593 C.3     1  UNL1        0.2976
     18 N          62.6820   82.5035   14.3002 N.ar    1  UNL1       -0.2863
     19 C          61.3480   81.8184   14.3323 C.ar    1  UNL1        0.1022
     20 C          61.5649   80.3668   14.0226 C.ar    1  UNL1        0.1196
     21 N          63.0329   80.1548   13.7991 N.ar    1  UNL1       -0.2220
     22 C          63.7233   81.4754   13.9707 C.ar    1  UNL1        0.1828
     23 N          62.7075   89.6631   10.9860 N.pl3   1  UNL1       -0.3329
     24 H          63.0819   89.0069   10.3547 H       1  UNL1        0.1466
     25 C          61.2227   89.7589   11.1756 C.3     1  UNL1        0.1211
     26 C          60.3733   88.5262   11.0800 C.3     1  UNL1        0.1522
     27 O          59.3744   88.2184   12.1558 O.3     1  UNL1       -0.3783
     28 H          59.4054   88.9115   12.8337 H       1  UNL1        0.2109
     29 C          60.5230   87.6013    9.9085 C.ar    1  UNL1        0.0067
     30 C          59.4192   87.4841    8.8996 C.ar    1  UNL1       -0.0018
     31 C          59.5689   86.5593    7.7282 C.ar    1  UNL1        0.0006
     32 C          60.8223   85.7516    7.5656 C.ar    1  UNL1        0.0114
     33 C          61.9261   85.8688    8.5745 C.ar    1  UNL1        0.0574
     34 CL         63.1796   85.0611    8.4120 Cl      1  UNL1       -0.0823
     35 C          61.7765   86.7936    9.7460 C.ar    1  UNL1        0.0095
@<TRIPOS>BOND
     1     8     9    1
     2     9    10    2
     3    10    11    1
     4    11    18    1
     5    18    19   ar
     6    19    20   ar
     7    20    21   ar
     8    21    22   ar
     9    11    12    2
    10    12    13    1
    11    13    14    2
    12    14    15    1
    13    15     1    1
    14     1     2    1
    15     2    23    1
    16    23    25    1
    17    25    26    1
    18    26    27    1
    19    26    29    1
    20    29    30   ar
    21    30    31   ar
    22    31    32   ar
    23    32    33   ar
    24    33    34    1
    25    33    35   ar
    26     2     3    2
    27     3     4    1
    28     4     5    2
    29     5     6    1
    30     6     7    2
    31    15    16    2
    32    16    17    1
    33    17     9    1
    34    22    18   ar
    35    17    13    1
    36     6     1    1
    37    35    29   ar
    38    23    24    1
    39    27    28    1
@<TRIPOS>MOLECULE
*****
 35 39 0 0 0
SMALL
GASTEIGER

@<TRIPOS>ATOM
      1 C          63.8332   90.7697   14.1593 C.3     1  UNL1        0.2246
      2 C          63.6717   90.4669   15.6195 C.2     1  UNL1        0.0436
      3 C          64.4216   91.2713   16.6396 C.2     1  UNL1        0.0288
      4 C          65.3329   92.3785   16.1996 C.2     1  UNL1        0.0896
      5 N          65.4944   92.6813   14.7394 N.am    1  UNL1       -0.1770
      6 C          64.7445   91.8769   13.7192 C.2     1  UNL1        0.2627
      7 O          64.9060   92.1798   12.2590 O.2     1  UNL1       -0.2719
      8 C          58.6826   89.0187   11.8162 C.3     1  UNL1        0.0313
      9 C          59.9813   88.5249   11.2510 C.2     1  UNL1        0.0138
     10 C          59.9813   87.5815   10.0849 C.2     1  UNL1        0.0138
     11 C          61.2799   87.0877    9.5196 C.2     1  UNL1        0.0686
     12 C          62.5787   87.5373   10.1205 C.2     1  UNL1        0.0643
     13 C          62.5788   88.4808   11.2866 C.2     1  UNL1        0.2248
     14 N          63.6933   89.0931   12.0821 N.2     1  UNL1       -0.0377
     15 C          63.0833   89.9654   13.1391 C.2     1  UNL1        0.3605
     16 N          61.5919   89.8922   12.9968 N.2     1  UNL1       -0.0547
     17 C          61.2800   88.9746   11.8518 C.3     1  UNL1        0.2976
     18 N          61.2799   86.1441    8.3534 N.ar    1  UNL1       -0.2863
     19 C          62.4612   85.3737    7.8426 C.ar    1  UNL1        0.1022
     20 C          62.0099   84.5589    6.6669 C.ar    1  UNL1        0.1196
     21 N          60.5497   84.8256    6.4511 N.ar    1  UNL1       -0.2220
     22 C          60.0985   85.8054    7.4934 C.ar    1  UNL1        0.1828
     23 N          62.7604   89.3598   16.0596 N.pl3   1  UNL1       -0.3329
     24 H          61.8586   89.2813   15.6725 H       1  UNL1        0.1466
     25 C          63.2231   88.3721   17.0893 C.3     1  UNL1        0.1211
     26 C          62.7748   86.9428   17.0123 C.3     1  UNL1        0.1522
     27 O          61.6819   86.4499   17.9139 O.3     1  UNL1       -0.3783
     28 H          61.3773   87.1764   18.4798 H       1  UNL1        0.2109
     29 C          63.4192   86.0063   16.0337 C.ar    1  UNL1        0.0067
     30 C          64.7018   86.3929   15.3588 C.ar    1  UNL1       -0.0018
     31 C          65.3463   85.4564   14.3802 C.ar    1  UNL1        0.0006
     32 C          64.7082   84.1333   14.0765 C.ar    1  UNL1        0.0114
     33 C          63.4256   83.7468   14.7514 C.ar    1  UNL1        0.0574
     34 CL         62.7875   82.4237   14.4476 Cl      1  UNL1       -0.0823
     35 C          62.7811   84.6832   15.7300 C.ar    1  UNL1        0.0095
@<TRIPOS>BOND
     1     8     9    1
     2     9    10    2
     3    10    11    1
     4    11    18    1
     5    18    19   ar
     6    19    20   ar
     7    20    21   ar
     8    21    22   ar
     9    11    12    2
    10    12    13    1
    11    13    14    2
    12    14    15    1
    13    15     1    1
    14     1     2    1
    15     2    23    1
    16    23    25    1
    17    25    26    1
    18    26    27    1
    19    26    29    1
    20    29    30   ar
    21    30    31   ar
    22    31    32   ar
    23    32    33   ar
    24    33    34    1
    25    33    35   ar
    26     2     3    2
    27     3     4    1
    28     4     5    2
    29     5     6    1
    30     6     7    2
    31    15    16    2
    32    16    17    1
    33    17     9    1
    34    22    18   ar
    35    17    13    1
    36     6     1    1
    37    35    29   ar
    38    23    24    1
    39    27    28    1
@<TRIPOS>MOLECULE
*****
 35 39 0 0 0
SMALL
GASTEIGER

@<TRIPOS>ATOM
      1 C          60.9319   88.0059    9.2174 C.3     1  UNL1        0.2246
      2 C          61.1672   86.6135    8.7117 C.2     1  UNL1        0.0436
      3 C          60.2645   86.0338    7.6633 C.2     1  UNL1        0.0288
      4 C          59.1265   86.8465    7.1207 C.2     1  UNL1        0.0896
      5 N          58.8911   88.2389    7.6264 N.am    1  UNL1       -0.1770
      6 C          59.7939   88.8186    8.6748 C.2     1  UNL1        0.2627
      7 O          59.5586   90.2110    9.1805 O.2     1  UNL1       -0.2719
      8 C          63.6871   87.4939   14.4358 C.3     1  UNL1        0.0313
      9 C          63.8463   88.7369   13.6114 C.2     1  UNL1        0.0138
     10 C          64.7076   89.8604   14.1070 C.2     1  UNL1        0.0138
     11 C          64.8667   91.1034   13.2827 C.2     1  UNL1        0.0686
     12 C          64.1646   91.2228   11.9625 C.2     1  UNL1        0.0643
     13 C          63.3032   90.0993   11.4668 C.2     1  UNL1        0.2248
     14 N          62.4939   89.9320   10.2150 N.2     1  UNL1       -0.0377
     15 C          61.8346   88.5857   10.2658 C.2     1  UNL1        0.3605
     16 N          62.2364   87.9208   11.5490 N.2     1  UNL1       -0.0547
     17 C          63.1441   88.8563   12.2913 C.3     1  UNL1        0.2976
     18 N          65.7281   92.2270   13.7784 N.ar    1  UNL1       -0.2863
     19 C          66.0006   93.5135   13.0568 C.ar    1  UNL1        0.1022
     20 C          66.9091   94.3429   13.9151 C.ar    1  UNL1        0.1196
     21 N          67.1980   93.5691   15.1672 N.ar    1  UNL1       -0.2220
     22 C          66.4681   92.2613   15.0827 C.ar    1  UNL1        0.1828
     23 N          62.3052   85.8008    9.2543 N.pl3   1  UNL1       -0.3329
     24 H          63.1935   85.8552    8.8334 H       1  UNL1        0.1466
     25 C          62.0898   84.9052   10.4381 C.3     1  UNL1        0.1211
     26 C          63.0041   83.7395   10.6729 C.3     1  UNL1        0.1522
     27 O          63.9178   83.2708    9.5794 O.3     1  UNL1       -0.3783
     28 H          63.7926   83.8255    8.7935 H       1  UNL1        0.2109
     29 C          63.0048   83.0424   12.0010 C.ar    1  UNL1        0.0067
     30 C          63.2806   81.5699   12.0752 C.ar    1  UNL1       -0.0018
     31 C          63.2813   80.8728   13.4034 C.ar    1  UNL1        0.0006
     32 C          63.0062   81.6483   14.6575 C.ar    1  UNL1        0.0114
     33 C          62.7304   83.1209   14.5834 C.ar    1  UNL1        0.0574
     34 CL         62.4552   83.8964   15.8376 Cl      1  UNL1       -0.0823
     35 C          62.7297   83.8179   13.2552 C.ar    1  UNL1        0.0095
@<TRIPOS>BOND
     1     8     9    1
     2     9    10    2
     3    10    11    1
     4    11    18    1
     5    18    19   ar
     6    19    20   ar
     7    20    21   ar
     8    21    22   ar
     9    11    12    2
    10    12    13    1
    11    13    14    2
    12    14    15    1
    13    15     1    1
    14     1     2    1
    15     2    23    1
    16    23    25    1
    17    25    26    1
    18    26    27    1
    19    26    29    1
    20    29    30   ar
    21    30    31   ar
    22    31    32   ar
    23    32    33   ar
    24    33    34    1
    25    33    35   ar
    26     2     3    2
    27     3     4    1
    28     4     5    2
    29     5     6    1
    30     6     7    2
    31    15    16    2
    32    16    17    1
    33    17     9    1
    34    22    18   ar
    35    17    13    1
    36     6     1    1
    37    35    29   ar
    38    23    24    1
    39    27    28    1
@<TRIPOS>MOLECULE
*****
 35 39 0 0 0
SMALL
GASTEIGER

@<TRIPOS>ATOM
      1 C          63.1949   83.5520   13.5674 C.3     1  UNL1        0.2246
      2 C          62.6533   83.2603   12.1994 C.2     1  UNL1        0.0436
      3 C          62.4178   81.8416   11.7729 C.2     1  UNL1        0.0288
      4 C          62.7237   80.7147   12.7143 C.2     1  UNL1        0.0896
      5 N          63.2653   81.0064   14.0824 N.am    1  UNL1       -0.1770
      6 C          63.5008   82.4251   14.5089 C.2     1  UNL1        0.2627
      7 O          64.0424   82.7168   15.8770 O.2     1  UNL1       -0.2719
      8 C          62.7604   87.7855   17.6873 C.3     1  UNL1        0.0313
      9 C          63.3787   88.0838   16.3536 C.2     1  UNL1        0.0138
     10 C          63.8919   89.4616   16.0562 C.2     1  UNL1        0.0138
     11 C          64.5102   89.7600   14.7226 C.2     1  UNL1        0.0686
     12 C          64.6153   88.6806   13.6863 C.2     1  UNL1        0.0643
     13 C          64.1021   87.3028   13.9837 C.2     1  UNL1        0.2248
     14 N          64.0692   86.0459   13.1658 N.2     1  UNL1       -0.0377
     15 C          63.4305   84.9706   13.9940 C.2     1  UNL1        0.3605
     16 N          63.0687   85.5631   15.3238 N.2     1  UNL1       -0.0547
     17 C          63.4839   87.0045   15.3174 C.3     1  UNL1        0.2976
     18 N          65.0234   91.1378   14.4252 N.ar    1  UNL1       -0.2863
     19 C          65.7690   92.0254   15.3771 C.ar    1  UNL1        0.1022
     20 C          66.0875   93.3060   14.6640 C.ar    1  UNL1        0.1196
     21 N          65.5386   93.2099   13.2713 N.ar    1  UNL1       -0.2220
     22 C          64.8810   91.8698   13.1238 C.ar    1  UNL1        0.1828
     23 N          62.3474   84.3871   11.2578 N.pl3   1  UNL1       -0.3329
     24 H          61.5752   84.9740   11.4270 H       1  UNL1        0.1466
     25 C          63.2178   84.6199   10.0586 C.3     1  UNL1        0.1211
     26 C          62.6594   85.3091    8.8490 C.3     1  UNL1        0.1522
     27 O          62.9039   84.7411    7.4824 O.3     1  UNL1       -0.3783
     28 H          63.4359   83.9336    7.5583 H       1  UNL1        0.2109
     29 C          61.8564   86.5663    9.0060 C.ar    1  UNL1        0.0067
     30 C          60.4963   86.6704    8.3821 C.ar    1  UNL1       -0.0018
     31 C          59.6933   87.9276    8.5391 C.ar    1  UNL1        0.0006
     32 C          60.2504   89.0808    9.3201 C.ar    1  UNL1        0.0114
     33 C          61.6105   88.9766    9.9440 C.ar    1  UNL1        0.0574
     34 CL         62.1675   90.1298   10.7250 Cl      1  UNL1       -0.0823
     35 C          62.4134   87.7194    9.7870 C.ar    1  UNL1        0.0095
@<TRIPOS>BOND
     1     8     9    1
     2     9    10    2
     3    10    11    1
     4    11    18    1
     5    18    19   ar
     6    19    20   ar
     7    20    21   ar
     8    21    22   ar
     9    11    12    2
    10    12    13    1
    11    13    14    2
    12    14    15    1
    13    15     1    1
    14     1     2    1
    15     2    23    1
    16    23    25    1
    17    25    26    1
    18    26    27    1
    19    26    29    1
    20    29    30   ar
    21    30    31   ar
    22    31    32   ar
    23    32    33   ar
    24    33    34    1
    25    33    35   ar
    26     2     3    2
    27     3     4    1
    28     4     5    2
    29     5     6    1
    30     6     7    2
    31    15    16    2
    32    16    17    1
    33    17     9    1
    34    22    18   ar
    35    17    13    1
    36     6     1    1
    37    35    29   ar
    38    23    24    1
    39    27    28    1
@<TRIPOS>MOLECULE
*****
 35 39 0 0 0
SMALL
GASTEIGER

@<TRIPOS>ATOM
      1 C          65.0609   91.4792   13.5035 C.3     1  UNL1        0.2246
      2 C          64.7716   91.8984   12.0926 C.2     1  UNL1        0.0436
      3 C          65.2023   93.2515   11.6090 C.2     1  UNL1        0.0288
      4 C          65.9221   94.1853   12.5362 C.2     1  UNL1        0.0896
      5 N          66.2114   93.7661   13.9471 N.am    1  UNL1       -0.1770
      6 C          65.7807   92.4130   14.4307 C.2     1  UNL1        0.2627
      7 O          66.0700   91.9939   15.8416 O.2     1  UNL1       -0.2719
      8 C          62.9947   88.0293   17.8525 C.3     1  UNL1        0.0313
      9 C          63.2947   87.4509   16.5014 C.2     1  UNL1        0.0138
     10 C          63.0718   85.9899   16.2447 C.2     1  UNL1        0.0138
     11 C          63.3718   85.4115   14.8937 C.2     1  UNL1        0.0686
     12 C          63.8947   86.2940   13.7992 C.2     1  UNL1        0.0643
     13 C          64.1176   87.7549   14.0559 C.2     1  UNL1        0.2248
     14 N          64.6199   88.8629   13.1784 N.2     1  UNL1       -0.0377
     15 C          64.6303   90.1262   13.9871 C.2     1  UNL1        0.3605
     16 N          64.1345   89.7989   15.3645 N.2     1  UNL1       -0.0547
     17 C          63.8176   88.3334   15.4070 C.3     1  UNL1        0.2976
     18 N          63.1489   83.9504   14.6371 N.ar    1  UNL1       -0.2863
     19 C          64.0690   83.0375   13.8822 C.ar    1  UNL1        0.1022
     20 C          63.4555   81.6687   13.8688 C.ar    1  UNL1        0.1196
     21 N          62.1562   81.7358   14.6153 N.ar    1  UNL1       -0.2220
     22 C          61.9667   83.1460   15.0902 C.ar    1  UNL1        0.1828
     23 N          64.0518   90.9646   11.1653 N.pl3   1  UNL1       -0.3329
     24 H          64.5617   90.3265   10.6158 H       1  UNL1        0.1466
     25 C          62.5550   91.0031   11.0752 C.3     1  UNL1        0.1211
     26 C          61.7441   89.8398   11.5642 C.3     1  UNL1        0.1522
     27 O          61.3509   89.7542   13.0092 O.3     1  UNL1       -0.3783
     28 H          61.6986   90.5246   13.4851 H       1  UNL1        0.2109
     29 C          61.3263   88.7622   10.6081 C.ar    1  UNL1        0.0067
     30 C          61.7748   87.3480   10.8294 C.ar    1  UNL1       -0.0018
     31 C          61.3571   86.2703    9.8733 C.ar    1  UNL1        0.0006
     32 C          60.4908   86.6068    8.6959 C.ar    1  UNL1        0.0114
     33 C          60.0422   88.0209    8.4746 C.ar    1  UNL1        0.0574
     34 CL         59.1759   88.3573    7.2972 Cl      1  UNL1       -0.0823
     35 C          60.4600   89.0986    9.4307 C.ar    1  UNL1        0.0095
@<TRIPOS>BOND
     1     8     9    1
     2     9    10    2
     3    10    11    1
     4    11    18    1
     5    18    19   ar
     6    19    20   ar
     7    20    21   ar
     8    21    22   ar
     9    11    12    2
    10    12    13    1
    11    13    14    2
    12    14    15    1
    13    15     1    1
    14     1     2    1
    15     2    23    1
    16    23    25    1
    17    25    26    1
    18    26    27    1
    19    26    29    1
    20    29    30   ar
    21    30    31   ar
    22    31    32   ar
    23    32    33   ar
    24    33    34    1
    25    33    35   ar
    26     2     3    2
    27     3     4    1
    28     4     5    2
    29     5     6    1
    30     6     7    2
    31    15    16    2
    32    16    17    1
    33    17     9    1
    34    22    18   ar
    35    17    13    1
    36     6     1    1
    37    35    29   ar
    38    23    24    1
    39    27    28    1
