@<TRIPOS>MOLECULE
*****
 57 59 0 0 0
SMALL
GASTEIGER

@<TRIPOS>ATOM
      1 C          62.3232   89.1638   11.0231 C.3     1  UNL1        0.1027
      2 N          61.6397   88.3706    9.9490 N.am    1  UNL1       -0.3019
      3 C          60.4560   88.9462    9.2298 C.2     1  UNL1        0.2405
      4 O          59.9556   90.3150    9.5847 O.2     1  UNL1       -0.2733
      5 H          61.9681   87.4722    9.7160 H       1  UNL1        0.1495
      6 C          59.7725   88.1530    8.1556 C.3     1  UNL1        0.1509
      7 C          60.1923   86.7385    7.8857 C.3     1  UNL1        0.0251
      8 C          58.7550   86.3444    7.7159 C.3     1  UNL1        0.0021
      9 C          61.6296   87.1326    8.0555 C.3     1  UNL1        0.0021
     10 C          60.6121   85.3239    7.6158 C.3     1  UNL1        0.0021
     11 N          58.6693   88.7744    7.3514 N.am    1  UNL1       -0.2640
     12 C          58.9941   89.7618    6.2699 C.2     1  UNL1        0.4021
     13 O          60.4221   90.1280    5.9928 O.2     1  UNL1       -0.2264
     14 H          57.7321   88.5341    7.5332 H       1  UNL1        0.1532
     15 O          57.8908   90.3832    5.4657 O.3     1  UNL1       -0.4306
     16 C          58.1085   91.7038    4.7885 C.3     1  UNL1        0.2573
     17 C          62.1635   90.6544   11.0713 C.3     1  UNL1        0.1303
     18 O          61.0434   91.2636   11.8614 O.3     1  UNL1       -0.3827
     19 H          60.5200   90.5599   12.2759 H       1  UNL1        0.2104
     20 C          63.1239   91.5360   10.3294 C.3     1  UNL1        0.0508
     21 C          64.3173   92.1070   11.0364 C.3     1  UNL1        0.0784
     22 C          65.5382   92.2153   13.3272 C.2     1  UNL1        0.2404
     23 O          65.6445   93.7061   13.2001 O.2     1  UNL1       -0.2733
     24 N          64.8746   91.4158   12.2453 N.am    1  UNL1       -0.3042
     25 H          64.8048   90.4373   12.3288 H       1  UNL1        0.1494
     26 C          66.0955   91.5240   14.5362 C.3     1  UNL1        0.1509
     27 C          64.0362   90.0622   15.1464 C.2     1  UNL1        0.4021
     28 O          63.1288   91.2228   14.8641 O.2     1  UNL1       -0.2264
     29 N          65.5196   90.2128   14.9824 N.am    1  UNL1       -0.2640
     30 H          66.1151   89.4511   15.1677 H       1  UNL1        0.1532
     31 C          63.1138   88.5366   17.0363 C.3     1  UNL1        0.2573
     32 O          63.4602   88.7511   15.5927 O.3     1  UNL1       -0.4306
     33 C          67.2287   92.1438   15.2988 C.3     1  UNL1        0.0251
     34 C          68.1792   91.7483   14.2079 C.3     1  UNL1        0.0021
     35 C          66.2782   92.5393   16.3897 C.3     1  UNL1        0.0021
     36 C          68.3619   92.7637   16.0614 C.3     1  UNL1        0.0021
     37 C          64.9534   93.3693   10.5344 C.3     1  UNL1        0.0460
     38 C          66.3504   93.3397    9.9892 C.ar    1  UNL1       -0.0205
     39 C          66.8606   94.4885    9.1706 C.ar    1  UNL1       -0.0042
     40 C          68.2577   94.4589    8.6254 C.ar    1  UNL1       -0.0003
     41 C          69.1447   93.2806    8.8989 C.ar    1  UNL1       -0.0000
     42 C          68.6345   92.1318    9.7174 C.ar    1  UNL1       -0.0003
     43 C          67.2375   92.1614   10.2626 C.ar    1  UNL1       -0.0042
     44 C          63.1663   88.4662   12.0491 C.3     1  UNL1        0.0484
     45 C          63.0484   86.9823   12.2336 C.ar    1  UNL1       -0.0204
     46 C          63.6066   86.3330   13.4652 C.ar    1  UNL1       -0.0042
     47 C          63.4887   84.8491   13.6498 C.ar    1  UNL1       -0.0003
     48 C          62.8127   84.0144   12.6027 C.ar    1  UNL1        0.0015
     49 C          62.2545   84.6638   11.3710 C.ar    1  UNL1       -0.0003
     50 C          62.3724   86.1477   11.1865 C.ar    1  UNL1       -0.0042
     51 C          62.6948   82.5305   12.7872 C.ar    1  UNL1        0.0214
     52 C          62.4616   81.9610   14.1552 C.ar    1  UNL1        0.0990
     53 N          62.3437   80.4771   14.3397 N.ar    1  UNL1       -0.2400
     54 C          62.4590   79.5627   13.1563 C.ar    1  UNL1        0.1284
     55 C          62.6922   80.1321   11.7883 C.ar    1  UNL1        0.1592
     56 F          62.8075   79.2177   10.6049 F       1  UNL1       -0.2025
     57 C          62.8101   81.6161   11.6038 C.ar    1  UNL1        0.0328
@<TRIPOS>BOND
     1    31    32    1
     2    32    27    1
     3    27    28    2
     4    27    29   am
     5    26    29    1
     6    26    22    1
     7    22    23    2
     8    22    24   am
     9    24    21    1
    10    21    37    1
    11    37    38    1
    12    38    39   ar
    13    39    40   ar
    14    40    41   ar
    15    41    42   ar
    16    42    43   ar
    17    21    20    1
    18    20    17    1
    19    17    18    1
    20    17     1    1
    21     1    44    1
    22    44    45    1
    23    45    46   ar
    24    46    47   ar
    25    47    48   ar
    26    48    51    1
    27    51    52   ar
    28    52    53   ar
    29    53    54   ar
    30    54    55   ar
    31    55    56    1
    32    55    57   ar
    33    48    49   ar
    34    49    50   ar
    35     1     2    1
    36     2     3   am
    37     3     4    2
    38     3     6    1
    39     6    11    1
    40    11    12   am
    41    12    13    2
    42    12    15    1
    43    15    16    1
    44     6     7    1
    45     7     8    1
    46     7     9    1
    47     7    10    1
    48    26    33    1
    49    33    34    1
    50    33    35    1
    51    33    36    1
    52    43    38   ar
    53    50    45   ar
    54    57    51   ar
    55    29    30    1
    56    24    25    1
    57    18    19    1
    58     2     5    1
    59    11    14    1
@<TRIPOS>MOLECULE
*****
 57 59 0 0 0
SMALL
GASTEIGER

@<TRIPOS>ATOM
      1 C          61.7115   87.5315   11.7921 C.3     1  UNL1        0.1027
      2 N          62.5868   86.3744   12.1729 N.am    1  UNL1       -0.3019
      3 C          62.4008   85.0427   11.5084 C.2     1  UNL1        0.2405
      4 O          61.3394   84.8679   10.4629 O.2     1  UNL1       -0.2733
      5 H          63.2834   86.4891   12.8591 H       1  UNL1        0.1495
      6 C          63.2761   83.8856   11.8892 C.3     1  UNL1        0.1509
      7 C          63.7439   83.7336   13.3062 C.3     1  UNL1        0.0251
      8 C          65.1665   83.6944   12.8324 C.3     1  UNL1        0.0021
      9 C          62.3213   83.7728   13.7801 C.3     1  UNL1        0.0021
     10 C          64.2117   83.5817   14.7234 C.3     1  UNL1        0.0021
     11 N          63.6836   82.8805   10.8530 N.am    1  UNL1       -0.2640
     12 C          63.1601   81.4766   10.9232 C.2     1  UNL1        0.4021
     13 O          62.2291   81.0777   12.0296 O.2     1  UNL1       -0.2264
     14 H          64.2947   83.1423   10.1269 H       1  UNL1        0.1532
     15 O          63.5676   80.4715    9.8870 O.3     1  UNL1       -0.4306
     16 C          62.7826   79.2040    9.7220 C.3     1  UNL1        0.2573
     17 C          62.0710   88.9201   12.2306 C.3     1  UNL1        0.1303
     18 O          60.9979   89.8645   12.6853 O.3     1  UNL1       -0.3827
     19 H          60.1358   89.4228   12.6346 H       1  UNL1        0.2104
     20 C          63.5035   89.3644   12.2145 C.3     1  UNL1        0.0508
     21 C          64.0654   90.1271   13.3776 C.3     1  UNL1        0.0784
     22 C          65.3838   91.9260   12.0450 C.2     1  UNL1        0.2404
     23 O          64.2489   92.0359   11.0705 O.2     1  UNL1       -0.2733
     24 N          65.2921   90.9715   13.1986 N.am    1  UNL1       -0.3042
     25 H          66.0370   90.8994   13.8382 H       1  UNL1        0.1494
     26 C          66.6106   92.7704   11.8660 C.3     1  UNL1        0.1509
     27 C          67.1734   93.3889   14.3258 C.2     1  UNL1        0.4021
     28 O          65.7410   93.7691   14.5579 O.2     1  UNL1       -0.2264
     29 N          67.6082   92.8896   12.9798 N.am    1  UNL1       -0.2640
     30 H          68.5482   92.6401   12.8275 H       1  UNL1        0.1532
     31 C          68.7675   92.2734   16.0475 C.3     1  UNL1        0.2573
     32 O          68.1710   93.5081   15.4397 O.3     1  UNL1       -0.4306
     33 C          66.8397   93.4957   10.5732 C.3     1  UNL1        0.0251
     34 C          66.0825   94.6776   11.1020 C.3     1  UNL1        0.0021
     35 C          67.5969   92.3138   10.0443 C.3     1  UNL1        0.0021
     36 C          67.0689   94.2210    9.2803 C.3     1  UNL1        0.0021
     37 C          63.4005   90.0452   14.7197 C.3     1  UNL1        0.0460
     38 C          63.4497   88.7679   15.5045 C.ar    1  UNL1       -0.0205
     39 C          62.7234   88.6628   16.8126 C.ar    1  UNL1       -0.0042
     40 C          62.7726   87.3854   17.5974 C.ar    1  UNL1       -0.0003
     41 C          63.5482   86.2130   17.0739 C.ar    1  UNL1       -0.0000
     42 C          64.2745   86.3181   15.7657 C.ar    1  UNL1       -0.0003
     43 C          64.2253   87.5954   14.9810 C.ar    1  UNL1       -0.0042
     44 C          60.4766   87.2998   10.9726 C.3     1  UNL1        0.0484
     45 C          60.2335   88.1135    9.7361 C.ar    1  UNL1       -0.0204
     46 C          60.6688   89.5480    9.6847 C.ar    1  UNL1       -0.0042
     47 C          60.4256   90.3617    8.4482 C.ar    1  UNL1       -0.0003
     48 C          59.7472   89.7409    7.2632 C.ar    1  UNL1        0.0015
     49 C          59.3118   88.3063    7.3147 C.ar    1  UNL1       -0.0003
     50 C          59.5550   87.4926    8.5511 C.ar    1  UNL1       -0.0042
     51 C          59.5040   90.5545    6.0268 C.ar    1  UNL1        0.0214
     52 C          58.1059   90.9453    5.6490 C.ar    1  UNL1        0.0990
     53 N          57.8628   91.7589    4.4126 N.ar    1  UNL1       -0.2400
     54 C          59.0177   92.1818    3.5538 C.ar    1  UNL1        0.1284
     55 C          60.4157   91.7911    3.9316 C.ar    1  UNL1        0.1592
     56 F          61.5706   92.2139    3.0729 F       1  UNL1       -0.2025
     57 C          60.6589   90.9774    5.1681 C.ar    1  UNL1        0.0328
@<TRIPOS>BOND
     1    31    32    1
     2    32    27    1
     3    27    28    2
     4    27    29   am
     5    26    29    1
     6    26    22    1
     7    22    23    2
     8    22    24   am
     9    24    21    1
    10    21    37    1
    11    37    38    1
    12    38    39   ar
    13    39    40   ar
    14    40    41   ar
    15    41    42   ar
    16    42    43   ar
    17    21    20    1
    18    20    17    1
    19    17    18    1
    20    17     1    1
    21     1    44    1
    22    44    45    1
    23    45    46   ar
    24    46    47   ar
    25    47    48   ar
    26    48    51    1
    27    51    52   ar
    28    52    53   ar
    29    53    54   ar
    30    54    55   ar
    31    55    56    1
    32    55    57   ar
    33    48    49   ar
    34    49    50   ar
    35     1     2    1
    36     2     3   am
    37     3     4    2
    38     3     6    1
    39     6    11    1
    40    11    12   am
    41    12    13    2
    42    12    15    1
    43    15    16    1
    44     6     7    1
    45     7     8    1
    46     7     9    1
    47     7    10    1
    48    26    33    1
    49    33    34    1
    50    33    35    1
    51    33    36    1
    52    43    38   ar
    53    50    45   ar
    54    57    51   ar
    55    29    30    1
    56    24    25    1
    57    18    19    1
    58     2     5    1
    59    11    14    1
@<TRIPOS>MOLECULE
*****
 57 59 0 0 0
SMALL
GASTEIGER

@<TRIPOS>ATOM
      1 C          61.6358   87.4647   11.7264 C.3     1  UNL1        0.1027
      2 N          62.5140   86.3191   12.1342 N.am    1  UNL1       -0.3019
      3 C          62.3754   84.9890   11.4550 C.2     1  UNL1        0.2405
      4 O          61.3585   84.8044   10.3679 O.2     1  UNL1       -0.2733
      5 H          63.1815   86.4403   12.8477 H       1  UNL1        0.1495
      6 C          63.2537   83.8434   11.8628 C.3     1  UNL1        0.1509
      7 C          63.7049   83.7144   13.2875 C.3     1  UNL1        0.0251
      8 C          65.1327   83.6639   12.8307 C.3     1  UNL1        0.0021
      9 C          62.2770   83.7650   13.7442 C.3     1  UNL1        0.0021
     10 C          64.1560   83.5855   14.7122 C.3     1  UNL1        0.0021
     11 N          63.6808   82.8268   10.8459 N.am    1  UNL1       -0.2640
     12 C          63.1952   81.4115   10.9506 C.2     1  UNL1        0.4021
     13 O          62.2825   81.0127   12.0722 O.2     1  UNL1       -0.2264
     14 H          64.2798   83.0885   10.1098 H       1  UNL1        0.1532
     15 O          63.6223   80.3948    9.9337 O.3     1  UNL1       -0.4306
     16 C          62.7415   79.2183    9.6336 C.3     1  UNL1        0.2573
     17 C          61.9622   88.8575   12.1773 C.3     1  UNL1        0.1303
     18 O          60.8741   89.7552   12.6873 O.3     1  UNL1       -0.3827
     19 H          60.0266   89.2841   12.6593 H       1  UNL1        0.2104
     20 C          63.3769   89.3527   12.1182 C.3     1  UNL1        0.0508
     21 C          63.9315   90.1744   13.2440 C.3     1  UNL1        0.0784
     22 C          65.5176   92.0602   14.0674 C.2     1  UNL1        0.2404
     23 O          64.7943   92.0950   15.3810 O.2     1  UNL1       -0.2733
     24 N          65.0862   91.1000   12.9989 N.am    1  UNL1       -0.3042
     25 H          65.5609   91.0772   12.1367 H       1  UNL1        0.1494
     26 C          66.6723   92.9858   13.8223 C.3     1  UNL1        0.1509
     27 C          66.2759   93.9599   11.4466 C.2     1  UNL1        0.4021
     28 O          66.2119   92.5696   10.8872 O.2     1  UNL1       -0.2264
     29 N          66.5061   94.1680   12.9141 N.am    1  UNL1       -0.2640
     30 H          66.5481   95.0806   13.2813 H       1  UNL1        0.1532
     31 C          67.2602   95.6086    9.6964 C.3     1  UNL1        0.2573
     32 O          66.1098   95.1421   10.5384 O.3     1  UNL1       -0.4306
     33 C          67.9931   92.7292   14.4853 C.3     1  UNL1        0.0251
     34 C          68.3555   91.7688   13.3915 C.3     1  UNL1        0.0021
     35 C          67.6306   93.6895   15.5791 C.3     1  UNL1        0.0021
     36 C          69.3139   92.4725   15.1483 C.3     1  UNL1        0.0021
     37 C          63.3315   90.0705   14.6148 C.3     1  UNL1        0.0460
     38 C          63.4458   88.7905   15.3885 C.ar    1  UNL1       -0.0205
     39 C          64.2548   87.6525   14.8403 C.ar    1  UNL1       -0.0042
     40 C          64.3691   86.3725   15.6140 C.ar    1  UNL1       -0.0003
     41 C          63.6744   86.2305   16.9359 C.ar    1  UNL1       -0.0000
     42 C          62.8655   87.3685   17.4840 C.ar    1  UNL1       -0.0003
     43 C          62.7512   88.6485   16.7104 C.ar    1  UNL1       -0.0042
     44 C          60.4310   87.2173   10.8677 C.3     1  UNL1        0.0484
     45 C          60.1970   88.0540    9.6449 C.ar    1  UNL1       -0.0204
     46 C          60.6914   89.4694    9.5988 C.ar    1  UNL1       -0.0042
     47 C          60.4574   90.3061    8.3759 C.ar    1  UNL1       -0.0003
     48 C          59.7290   89.7273    7.1993 C.ar    1  UNL1        0.0015
     49 C          59.2345   88.3119    7.2455 C.ar    1  UNL1       -0.0003
     50 C          59.4685   87.4752    8.4683 C.ar    1  UNL1       -0.0042
     51 C          59.4950   90.5640    5.9765 C.ar    1  UNL1        0.0214
     52 C          58.1017   90.9797    5.6076 C.ar    1  UNL1        0.0990
     53 N          57.8677   91.8163    4.3848 N.ar    1  UNL1       -0.2400
     54 C          59.0269   92.2373    3.5309 C.ar    1  UNL1        0.1284
     55 C          60.4201   91.8216    3.8998 C.ar    1  UNL1        0.1592
     56 F          61.5793   92.2425    3.0460 F       1  UNL1       -0.2025
     57 C          60.6542   90.9849    5.1227 C.ar    1  UNL1        0.0328
@<TRIPOS>BOND
     1    31    32    1
     2    32    27    1
     3    27    28    2
     4    27    29   am
     5    26    29    1
     6    26    22    1
     7    22    23    2
     8    22    24   am
     9    24    21    1
    10    21    37    1
    11    37    38    1
    12    38    39   ar
    13    39    40   ar
    14    40    41   ar
    15    41    42   ar
    16    42    43   ar
    17    21    20    1
    18    20    17    1
    19    17    18    1
    20    17     1    1
    21     1    44    1
    22    44    45    1
    23    45    46   ar
    24    46    47   ar
    25    47    48   ar
    26    48    51    1
    27    51    52   ar
    28    52    53   ar
    29    53    54   ar
    30    54    55   ar
    31    55    56    1
    32    55    57   ar
    33    48    49   ar
    34    49    50   ar
    35     1     2    1
    36     2     3   am
    37     3     4    2
    38     3     6    1
    39     6    11    1
    40    11    12   am
    41    12    13    2
    42    12    15    1
    43    15    16    1
    44     6     7    1
    45     7     8    1
    46     7     9    1
    47     7    10    1
    48    26    33    1
    49    33    34    1
    50    33    35    1
    51    33    36    1
    52    43    38   ar
    53    50    45   ar
    54    57    51   ar
    55    29    30    1
    56    24    25    1
    57    18    19    1
    58     2     5    1
    59    11    14    1
@<TRIPOS>MOLECULE
*****
 57 59 0 0 0
SMALL
GASTEIGER

@<TRIPOS>ATOM
      1 C          61.6906   87.3267   11.7017 C.3     1  UNL1        0.1027
      2 N          62.5722   86.1829   12.1073 N.am    1  UNL1       -0.3019
      3 C          62.7263   84.9970   11.2018 C.2     1  UNL1        0.2405
      4 O          61.9988   84.9550    9.8908 O.2     1  UNL1       -0.2733
      5 H          63.0497   86.2105   12.9678 H       1  UNL1        0.1495
      6 C          63.6079   83.8532   11.6074 C.3     1  UNL1        0.1509
      7 C          63.3742   82.4866   11.0350 C.3     1  UNL1        0.0251
      8 C          64.5157   82.6899   10.0834 C.3     1  UNL1        0.0021
      9 C          62.2327   82.2832   11.9866 C.3     1  UNL1        0.0021
     10 C          63.1405   81.1199   10.4626 C.3     1  UNL1        0.0021
     11 N          64.7232   84.0760   12.5854 N.am    1  UNL1       -0.2640
     12 C          64.5067   83.8042   14.0446 C.2     1  UNL1        0.4021
     13 O          63.1749   83.3096   14.5258 O.2     1  UNL1       -0.2264
     14 H          65.5973   84.4006   12.2695 H       1  UNL1        0.1532
     15 O          65.6220   84.0271   15.0225 O.3     1  UNL1       -0.4306
     16 C          66.7334   84.9776   14.6888 C.3     1  UNL1        0.2573
     17 C          62.0181   88.7208   12.1479 C.3     1  UNL1        0.1303
     18 O          60.9212   89.6448   12.5874 O.3     1  UNL1       -0.3827
     19 H          60.0681   89.1876   12.5228 H       1  UNL1        0.2104
     20 C          63.4424   89.1910   12.1545 C.3     1  UNL1        0.0508
     21 C          63.9626   89.9916   13.3114 C.3     1  UNL1        0.0784
     22 C          65.3108   91.8919   12.1621 C.2     1  UNL1        0.2404
     23 O          64.1253   92.2120   11.3006 O.2     1  UNL1       -0.2733
     24 N          65.2294   90.7818   13.1675 N.am    1  UNL1       -0.3042
     25 H          66.0075   90.5717   13.7329 H       1  UNL1        0.1494
     26 C          66.5777   92.6821   12.0181 C.3     1  UNL1        0.1509
     27 C          67.2655   92.8740   14.5161 C.2     1  UNL1        0.4021
     28 O          65.8485   93.2045   14.8808 O.2     1  UNL1       -0.2264
     29 N          67.6301   92.6129   13.0847 N.am    1  UNL1       -0.2640
     30 H          68.5601   92.3960   12.8454 H       1  UNL1        0.1532
     31 C          69.1038   94.0310   15.9416 C.3     1  UNL1        0.2573
     32 O          68.3178   92.8048   15.5828 O.3     1  UNL1       -0.4306
     33 C          66.7922   93.5414   10.8075 C.3     1  UNL1        0.0251
     34 C          67.4073   92.3768   10.0897 C.3     1  UNL1        0.0021
     35 C          66.1772   94.7061   11.5253 C.3     1  UNL1        0.0021
     36 C          67.0067   94.4008    9.5970 C.3     1  UNL1        0.0021
     37 C          63.2159   90.0021   14.6123 C.3     1  UNL1        0.0460
     38 C          63.2794   88.8120   15.5231 C.ar    1  UNL1       -0.0205
     39 C          62.6860   88.8877   16.8987 C.ar    1  UNL1       -0.0042
     40 C          62.7496   87.6976   17.8095 C.ar    1  UNL1       -0.0003
     41 C          63.4065   86.4317   17.3448 C.ar    1  UNL1       -0.0000
     42 C          63.9999   86.3560   15.9692 C.ar    1  UNL1       -0.0003
     43 C          63.9364   87.5460   15.0584 C.ar    1  UNL1       -0.0042
     44 C          60.4815   87.0763   10.8500 C.3     1  UNL1        0.0484
     45 C          60.2244   87.9293    9.6433 C.ar    1  UNL1       -0.0204
     46 C          59.5264   87.3487    8.4493 C.ar    1  UNL1       -0.0042
     47 C          59.2693   88.2017    7.2425 C.ar    1  UNL1       -0.0003
     48 C          59.7103   89.6354    7.2297 C.ar    1  UNL1        0.0015
     49 C          60.4084   90.2160    8.4238 C.ar    1  UNL1       -0.0003
     50 C          60.6654   89.3630    9.6305 C.ar    1  UNL1       -0.0042
     51 C          59.4533   90.4884    6.0230 C.ar    1  UNL1        0.0214
     52 C          58.0518   90.8972    5.6782 C.ar    1  UNL1        0.0990
     53 N          57.7947   91.7502    4.4715 N.ar    1  UNL1       -0.2400
     54 C          58.9391   92.1945    3.6095 C.ar    1  UNL1        0.1284
     55 C          60.3405   91.7858    3.9543 C.ar    1  UNL1        0.1592
     56 F          61.4849   92.2301    3.0923 F       1  UNL1       -0.2025
     57 C          60.5976   90.9327    5.1611 C.ar    1  UNL1        0.0328
@<TRIPOS>BOND
     1    31    32    1
     2    32    27    1
     3    27    28    2
     4    27    29   am
     5    26    29    1
     6    26    22    1
     7    22    23    2
     8    22    24   am
     9    24    21    1
    10    21    37    1
    11    37    38    1
    12    38    39   ar
    13    39    40   ar
    14    40    41   ar
    15    41    42   ar
    16    42    43   ar
    17    21    20    1
    18    20    17    1
    19    17    18    1
    20    17     1    1
    21     1    44    1
    22    44    45    1
    23    45    46   ar
    24    46    47   ar
    25    47    48   ar
    26    48    51    1
    27    51    52   ar
    28    52    53   ar
    29    53    54   ar
    30    54    55   ar
    31    55    56    1
    32    55    57   ar
    33    48    49   ar
    34    49    50   ar
    35     1     2    1
    36     2     3   am
    37     3     4    2
    38     3     6    1
    39     6    11    1
    40    11    12   am
    41    12    13    2
    42    12    15    1
    43    15    16    1
    44     6     7    1
    45     7     8    1
    46     7     9    1
    47     7    10    1
    48    26    33    1
    49    33    34    1
    50    33    35    1
    51    33    36    1
    52    43    38   ar
    53    50    45   ar
    54    57    51   ar
    55    29    30    1
    56    24    25    1
    57    18    19    1
    58     2     5    1
    59    11    14    1
@<TRIPOS>MOLECULE
*****
 57 59 0 0 0
SMALL
GASTEIGER

@<TRIPOS>ATOM
      1 C          61.8917   87.7246   11.7244 C.3     1  UNL1        0.1027
      2 N          62.7179   86.5700   12.2084 N.am    1  UNL1       -0.3019
      3 C          62.5929   85.2292   11.5477 C.2     1  UNL1        0.2405
      4 O          61.6415   85.0430   10.4031 O.2     1  UNL1       -0.2733
      5 H          63.3424   86.6923   12.9596 H       1  UNL1        0.1495
      6 C          63.4192   84.0747   12.0317 C.3     1  UNL1        0.1509
      7 C          63.4806   82.8083   11.2302 C.3     1  UNL1        0.0251
      8 C          64.4837   83.4389   10.3105 C.3     1  UNL1        0.0021
      9 C          62.4774   82.1776   12.1499 C.3     1  UNL1        0.0021
     10 C          63.5420   81.5418   10.4287 C.3     1  UNL1        0.0021
     11 N          64.1840   84.1865   13.3171 N.am    1  UNL1       -0.2640
     12 C          63.4622   84.4974   14.5948 C.2     1  UNL1        0.4021
     13 O          61.9756   84.6964   14.5870 O.2     1  UNL1       -0.2264
     14 H          65.1598   84.0558   13.3223 H       1  UNL1        0.1532
     15 O          64.2272   84.6092   15.8803 O.3     1  UNL1       -0.4306
     16 C          63.7162   85.4884   16.9830 C.3     1  UNL1        0.2573
     17 C          62.3327   89.1311   12.0022 C.3     1  UNL1        0.1303
     18 O          61.6414   89.9387   13.0605 O.3     1  UNL1       -0.3827
     19 H          60.9386   89.4069   13.4655 H       1  UNL1        0.2104
     20 C          63.4650   89.7300   11.2218 C.3     1  UNL1        0.0508
     21 C          63.8849   91.1472   11.4770 C.3     1  UNL1        0.0784
     22 C          65.5313   91.7226   13.4027 C.2     1  UNL1        0.2404
     23 O          66.6894   91.3607   12.5208 O.2     1  UNL1       -0.2733
     24 N          64.1291   91.6159   12.8808 N.am    1  UNL1       -0.3042
     25 H          63.3690   91.8534   13.4597 H       1  UNL1        0.1494
     26 C          65.7755   92.1912   14.8066 C.3     1  UNL1        0.1509
     27 C          64.1088   90.5039   15.8672 C.2     1  UNL1        0.4021
     28 O          64.3717   89.5407   14.7478 O.2     1  UNL1       -0.2264
     29 N          64.8107   91.8292   15.8966 N.am    1  UNL1       -0.2640
     30 H          64.6382   92.4615   16.6313 H       1  UNL1        0.1532
     31 C          62.8072   88.7028   17.2132 C.3     1  UNL1        0.2573
     32 O          63.1440   90.1419   16.9572 O.3     1  UNL1       -0.4306
     33 C          66.9844   93.0219   15.1204 C.3     1  UNL1        0.0251
     34 C          67.3788   92.0446   16.1878 C.3     1  UNL1        0.0021
     35 C          66.5899   93.9992   14.0531 C.3     1  UNL1        0.0021
     36 C          68.1933   93.8526   15.4342 C.3     1  UNL1        0.0021
     37 C          64.0606   92.0958   10.3284 C.3     1  UNL1        0.0460
     38 C          65.3225   92.8971   10.2037 C.ar    1  UNL1       -0.0205
     39 C          66.5838   92.2404    9.7263 C.ar    1  UNL1       -0.0042
     40 C          67.8458   93.0417    9.6016 C.ar    1  UNL1       -0.0003
     41 C          67.8464   94.4996    9.9543 C.ar    1  UNL1       -0.0000
     42 C          66.5851   95.1563   10.4318 C.ar    1  UNL1       -0.0003
     43 C          65.3232   94.3551   10.5565 C.ar    1  UNL1       -0.0042
     44 C          60.6243   87.4726   10.9626 C.3     1  UNL1        0.0484
     45 C          60.3285   88.2567    9.7185 C.ar    1  UNL1       -0.0204
     46 C          59.7973   87.5595    8.5013 C.ar    1  UNL1       -0.0042
     47 C          59.5015   88.3436    7.2571 C.ar    1  UNL1       -0.0003
     48 C          59.7370   89.8247    7.2303 C.ar    1  UNL1        0.0015
     49 C          60.2682   90.5219    8.4476 C.ar    1  UNL1       -0.0003
     50 C          60.5639   89.7378    9.6917 C.ar    1  UNL1       -0.0042
     51 C          59.4412   90.6088    5.9862 C.ar    1  UNL1        0.0214
     52 C          58.0227   90.9392    5.6274 C.ar    1  UNL1        0.0990
     53 N          57.7269   91.7232    4.3833 N.ar    1  UNL1       -0.2400
     54 C          58.8496   92.1769    3.4980 C.ar    1  UNL1        0.1284
     55 C          60.2681   91.8465    3.8568 C.ar    1  UNL1        0.1592
     56 F          61.3908   92.3001    2.9715 F       1  UNL1       -0.2025
     57 C          60.5639   91.0624    5.1009 C.ar    1  UNL1        0.0328
@<TRIPOS>BOND
     1    31    32    1
     2    32    27    1
     3    27    28    2
     4    27    29   am
     5    26    29    1
     6    26    22    1
     7    22    23    2
     8    22    24   am
     9    24    21    1
    10    21    37    1
    11    37    38    1
    12    38    39   ar
    13    39    40   ar
    14    40    41   ar
    15    41    42   ar
    16    42    43   ar
    17    21    20    1
    18    20    17    1
    19    17    18    1
    20    17     1    1
    21     1    44    1
    22    44    45    1
    23    45    46   ar
    24    46    47   ar
    25    47    48   ar
    26    48    51    1
    27    51    52   ar
    28    52    53   ar
    29    53    54   ar
    30    54    55   ar
    31    55    56    1
    32    55    57   ar
    33    48    49   ar
    34    49    50   ar
    35     1     2    1
    36     2     3   am
    37     3     4    2
    38     3     6    1
    39     6    11    1
    40    11    12   am
    41    12    13    2
    42    12    15    1
    43    15    16    1
    44     6     7    1
    45     7     8    1
    46     7     9    1
    47     7    10    1
    48    26    33    1
    49    33    34    1
    50    33    35    1
    51    33    36    1
    52    43    38   ar
    53    50    45   ar
    54    57    51   ar
    55    29    30    1
    56    24    25    1
    57    18    19    1
    58     2     5    1
    59    11    14    1
@<TRIPOS>MOLECULE
*****
 57 59 0 0 0
SMALL
GASTEIGER

@<TRIPOS>ATOM
      1 C          61.5997   87.2514   11.6228 C.3     1  UNL1        0.1027
      2 N          62.4719   86.1137   12.0644 N.am    1  UNL1       -0.3019
      3 C          62.7179   84.9558   11.1431 C.2     1  UNL1        0.2405
      4 O          62.0917   84.9357    9.7803 O.2     1  UNL1       -0.2733
      5 H          62.8828   86.1269   12.9590 H       1  UNL1        0.1495
      6 C          63.5900   83.8181   11.5847 C.3     1  UNL1        0.1509
      7 C          63.3691   82.4434   11.0269 C.3     1  UNL1        0.0251
      8 C          64.5258   82.6368   10.0919 C.3     1  UNL1        0.0021
      9 C          62.2123   82.2499   11.9620 C.3     1  UNL1        0.0021
     10 C          63.1480   81.0685   10.4692 C.3     1  UNL1        0.0021
     11 N          64.6832   84.0552   12.5841 N.am    1  UNL1       -0.2640
     12 C          64.4235   83.8381   14.0454 C.2     1  UNL1        0.4021
     13 O          63.0706   83.3840   14.5073 O.2     1  UNL1       -0.2264
     14 H          65.5712   84.3533   12.2809 H       1  UNL1        0.1532
     15 O          65.5167   84.0752   15.0448 O.3     1  UNL1       -0.4306
     16 C          66.6911   84.9349   14.6818 C.3     1  UNL1        0.2573
     17 C          61.9082   88.6498   12.0689 C.3     1  UNL1        0.1303
     18 O          60.8023   89.5494   12.5356 O.3     1  UNL1       -0.3827
     19 H          59.9575   89.0754   12.4865 H       1  UNL1        0.2104
     20 C          63.3226   89.1488   12.0482 C.3     1  UNL1        0.0508
     21 C          63.7850   90.1355   13.0791 C.3     1  UNL1        0.0784
     22 C          66.0434   91.2556   13.7075 C.2     1  UNL1        0.2404
     23 O          66.0828   90.4625   14.9800 O.2     1  UNL1       -0.2733
     24 N          64.8945   91.0922   12.7570 N.am    1  UNL1       -0.3042
     25 H          64.8687   91.6128   11.9218 H       1  UNL1        0.1494
     26 C          67.1530   92.2124   13.3854 C.3     1  UNL1        0.1509
     27 C          66.7381   93.1123   10.9838 C.2     1  UNL1        0.4021
     28 O          65.4155   93.6689   11.4208 O.2     1  UNL1       -0.2264
     29 N          67.6068   92.3841   11.9661 N.am    1  UNL1       -0.2640
     30 H          68.4749   92.0188   11.6793 H       1  UNL1        0.1532
     31 C          67.9355   94.5222    9.1594 C.3     1  UNL1        0.2573
     32 O          67.1920   93.2841    9.5644 O.3     1  UNL1       -0.4306
     33 C          67.8086   92.9973   14.4827 C.3     1  UNL1        0.0251
     34 C          69.0331   92.1390   14.3650 C.3     1  UNL1        0.0021
     35 C          66.5841   93.8556   14.6003 C.3     1  UNL1        0.0021
     36 C          68.4642   93.7823   15.5799 C.3     1  UNL1        0.0021
     37 C          63.1378   90.1656   14.4319 C.3     1  UNL1        0.0460
     38 C          63.2534   88.9812   15.3451 C.ar    1  UNL1       -0.0205
     39 C          63.9494   87.7379   14.8764 C.ar    1  UNL1       -0.0042
     40 C          64.0649   86.5534   15.7896 C.ar    1  UNL1       -0.0003
     41 C          63.4844   86.6124   17.1714 C.ar    1  UNL1       -0.0000
     42 C          62.7884   87.8557   17.6401 C.ar    1  UNL1       -0.0003
     43 C          62.6728   89.0401   16.7270 C.ar    1  UNL1       -0.0042
     44 C          60.4190   86.9905   10.7352 C.3     1  UNL1        0.0484
     45 C          60.1684   87.8665    9.5437 C.ar    1  UNL1       -0.0204
     46 C          59.4096   87.3313    8.3657 C.ar    1  UNL1       -0.0042
     47 C          59.1590   88.2074    7.1741 C.ar    1  UNL1       -0.0003
     48 C          59.6672   89.6186    7.1606 C.ar    1  UNL1        0.0015
     49 C          60.4260   90.1538    8.3387 C.ar    1  UNL1       -0.0003
     50 C          60.6766   89.2777    9.5302 C.ar    1  UNL1       -0.0042
     51 C          59.4166   90.4946    5.9691 C.ar    1  UNL1        0.0214
     52 C          58.0159   90.9012    5.6184 C.ar    1  UNL1        0.0990
     53 N          57.7653   91.7773    4.4269 N.ar    1  UNL1       -0.2400
     54 C          58.9154   92.2467    3.5860 C.ar    1  UNL1        0.1284
     55 C          60.3159   91.8402    3.9366 C.ar    1  UNL1        0.1592
     56 F          61.4660   92.3096    3.0957 F       1  UNL1       -0.2025
     57 C          60.5666   90.9641    5.1282 C.ar    1  UNL1        0.0328
@<TRIPOS>BOND
     1    31    32    1
     2    32    27    1
     3    27    28    2
     4    27    29   am
     5    26    29    1
     6    26    22    1
     7    22    23    2
     8    22    24   am
     9    24    21    1
    10    21    37    1
    11    37    38    1
    12    38    39   ar
    13    39    40   ar
    14    40    41   ar
    15    41    42   ar
    16    42    43   ar
    17    21    20    1
    18    20    17    1
    19    17    18    1
    20    17     1    1
    21     1    44    1
    22    44    45    1
    23    45    46   ar
    24    46    47   ar
    25    47    48   ar
    26    48    51    1
    27    51    52   ar
    28    52    53   ar
    29    53    54   ar
    30    54    55   ar
    31    55    56    1
    32    55    57   ar
    33    48    49   ar
    34    49    50   ar
    35     1     2    1
    36     2     3   am
    37     3     4    2
    38     3     6    1
    39     6    11    1
    40    11    12   am
    41    12    13    2
    42    12    15    1
    43    15    16    1
    44     6     7    1
    45     7     8    1
    46     7     9    1
    47     7    10    1
    48    26    33    1
    49    33    34    1
    50    33    35    1
    51    33    36    1
    52    43    38   ar
    53    50    45   ar
    54    57    51   ar
    55    29    30    1
    56    24    25    1
    57    18    19    1
    58     2     5    1
    59    11    14    1
@<TRIPOS>MOLECULE
*****
 57 59 0 0 0
SMALL
GASTEIGER

@<TRIPOS>ATOM
      1 C          60.3575   89.4317    8.7106 C.3     1  UNL1        0.1027
      2 N          61.2486   88.2264    8.6545 N.am    1  UNL1       -0.3019
      3 C          60.6683   86.8555    8.8378 C.2     1  UNL1        0.2405
      4 O          59.1969   86.6898    9.0773 O.2     1  UNL1       -0.2733
      5 H          62.2144   88.3352    8.4973 H       1  UNL1        0.1495
      6 C          61.5595   85.6502    8.7817 C.3     1  UNL1        0.1509
      7 C          61.9302   85.0526    7.4568 C.3     1  UNL1        0.0251
      8 C          63.3424   84.8774    7.9309 C.3     1  UNL1        0.0021
      9 C          60.5179   85.2278    6.9826 C.3     1  UNL1        0.0021
     10 C          62.3008   84.4550    6.1318 C.3     1  UNL1        0.0021
     11 N          62.0799   85.0425   10.0504 N.am    1  UNL1       -0.2640
     12 C          61.7229   85.6501   11.3746 C.2     1  UNL1        0.4021
     13 O          60.8455   86.8654   11.4300 O.2     1  UNL1       -0.2264
     14 H          62.6558   84.2448   10.0141 H       1  UNL1        0.1532
     15 O          62.2434   85.0423   12.6434 O.3     1  UNL1       -0.4306
     16 C          63.2604   83.9413   12.5854 C.3     1  UNL1        0.2573
     17 C          60.5420   90.4510    9.7955 C.3     1  UNL1        0.1303
     18 O          59.4181   90.7498   10.7429 O.3     1  UNL1       -0.3827
     19 H          58.6503   90.2018   10.5168 H       1  UNL1        0.2104
     20 C          61.8504   91.1714    9.9331 C.3     1  UNL1        0.0508
     21 C          63.0252   90.4800   10.5591 C.3     1  UNL1        0.0784
     22 C          64.9048   92.0133   11.4896 C.2     1  UNL1        0.2404
     23 O          64.0401   92.3601   12.6651 O.2     1  UNL1       -0.2733
     24 N          64.3974   91.0732   10.4366 N.am    1  UNL1       -0.3042
     25 H          64.9649   90.8457    9.6650 H       1  UNL1        0.1494
     26 C          66.2771   92.6066   11.3670 C.3     1  UNL1        0.1509
     27 C          67.3092   93.0684   13.7060 C.2     1  UNL1        0.4021
     28 O          66.2635   94.1132   13.9611 O.2     1  UNL1       -0.2264
     29 N          67.3160   92.3152   12.4089 N.am    1  UNL1       -0.2640
     30 H          68.0023   91.6295   12.2414 H       1  UNL1        0.1532
     31 C          67.9601   92.7074   16.1952 C.3     1  UNL1        0.2573
     32 O          68.3482   92.7770   14.7480 O.3     1  UNL1       -0.4306
     33 C          66.6103   93.4913   10.2024 C.3     1  UNL1        0.0251
     34 C          67.6682   92.5207    9.7678 C.3     1  UNL1        0.0021
     35 C          65.5525   94.4619   10.6371 C.3     1  UNL1        0.0021
     36 C          66.9436   94.3761    9.0379 C.3     1  UNL1        0.0021
     37 C          62.8277   89.1952   11.3077 C.3     1  UNL1        0.0460
     38 C          63.1917   89.1100   12.7603 C.ar    1  UNL1       -0.0205
     39 C          62.7832   90.2043   13.7014 C.ar    1  UNL1       -0.0042
     40 C          63.1473   90.1190   15.1541 C.ar    1  UNL1       -0.0003
     41 C          63.9199   88.9394   15.6656 C.ar    1  UNL1       -0.0000
     42 C          64.3285   87.8451   14.7246 C.ar    1  UNL1       -0.0003
     43 C          63.9644   87.9304   13.2720 C.ar    1  UNL1       -0.0042
     44 C          59.2819   89.6178    7.6818 C.3     1  UNL1        0.0484
     45 C          59.5720   90.3795    6.4226 C.ar    1  UNL1       -0.0204
     46 C          58.4680   91.1086    5.7160 C.ar    1  UNL1       -0.0042
     47 C          58.7582   91.8704    4.4567 C.ar    1  UNL1       -0.0003
     48 C          60.1523   91.9030    3.9042 C.ar    1  UNL1        0.0015
     49 C          61.2564   91.1737    4.6110 C.ar    1  UNL1       -0.0003
     50 C          60.9662   90.4120    5.8702 C.ar    1  UNL1       -0.0042
     51 C          60.4425   92.6647    2.6451 C.ar    1  UNL1        0.0214
     52 C          59.3151   93.1131    1.7631 C.ar    1  UNL1        0.0990
     53 N          59.6053   93.8748    0.5039 N.ar    1  UNL1       -0.2400
     54 C          61.0228   94.1882    0.1267 C.ar    1  UNL1        0.1284
     55 C          62.1502   93.7398    1.0086 C.ar    1  UNL1        0.1592
     56 F          63.5678   94.0531    0.6314 F       1  UNL1       -0.2025
     57 C          61.8601   92.9780    2.2679 C.ar    1  UNL1        0.0328
@<TRIPOS>BOND
     1    31    32    1
     2    32    27    1
     3    27    28    2
     4    27    29   am
     5    26    29    1
     6    26    22    1
     7    22    23    2
     8    22    24   am
     9    24    21    1
    10    21    37    1
    11    37    38    1
    12    38    39   ar
    13    39    40   ar
    14    40    41   ar
    15    41    42   ar
    16    42    43   ar
    17    21    20    1
    18    20    17    1
    19    17    18    1
    20    17     1    1
    21     1    44    1
    22    44    45    1
    23    45    46   ar
    24    46    47   ar
    25    47    48   ar
    26    48    51    1
    27    51    52   ar
    28    52    53   ar
    29    53    54   ar
    30    54    55   ar
    31    55    56    1
    32    55    57   ar
    33    48    49   ar
    34    49    50   ar
    35     1     2    1
    36     2     3   am
    37     3     4    2
    38     3     6    1
    39     6    11    1
    40    11    12   am
    41    12    13    2
    42    12    15    1
    43    15    16    1
    44     6     7    1
    45     7     8    1
    46     7     9    1
    47     7    10    1
    48    26    33    1
    49    33    34    1
    50    33    35    1
    51    33    36    1
    52    43    38   ar
    53    50    45   ar
    54    57    51   ar
    55    29    30    1
    56    24    25    1
    57    18    19    1
    58     2     5    1
    59    11    14    1
@<TRIPOS>MOLECULE
*****
 57 59 0 0 0
SMALL
GASTEIGER

@<TRIPOS>ATOM
      1 C          61.3632   87.3543   11.3001 C.3     1  UNL1        0.1027
      2 N          62.0957   86.2445   11.9941 N.am    1  UNL1       -0.3019
      3 C          62.6805   85.1174   11.1956 C.2     1  UNL1        0.2405
      4 O          62.5327   85.1001    9.7031 O.2     1  UNL1       -0.2733
      5 H          62.1928   86.2559   12.9738 H       1  UNL1        0.1495
      6 C          63.4131   84.0076   11.8897 C.3     1  UNL1        0.1509
      7 C          63.3998   82.6236   11.3116 C.3     1  UNL1        0.0251
      8 C          62.2242   82.2741   12.1751 C.3     1  UNL1        0.0021
      9 C          64.5755   82.9731   10.4480 C.3     1  UNL1        0.0021
     10 C          63.3866   81.2395   10.7334 C.3     1  UNL1        0.0021
     11 N          64.1589   84.2818   13.1619 N.am    1  UNL1       -0.2640
     12 C          63.4059   84.6130   14.4162 C.2     1  UNL1        0.4021
     13 O          61.9071   84.6699   14.3984 O.2     1  UNL1       -0.2264
     14 H          65.1426   84.2445   13.1736 H       1  UNL1        0.1532
     15 O          64.1518   84.8872   15.6885 O.3     1  UNL1       -0.4306
     16 C          63.6195   85.8902   16.6686 C.3     1  UNL1        0.2573
     17 C          61.6856   88.7830   11.6234 C.3     1  UNL1        0.1303
     18 O          60.8404   89.5390   12.6052 O.3     1  UNL1       -0.3827
     19 H          60.1336   88.9622   12.9349 H       1  UNL1        0.2104
     20 C          62.8534   89.4558   10.9648 C.3     1  UNL1        0.0508
     21 C          63.2739   90.8274   11.4033 C.3     1  UNL1        0.0784
     22 C          64.6575   91.2003   13.5704 C.2     1  UNL1        0.2404
     23 O          65.9195   90.9040   12.8157 O.2     1  UNL1       -0.2733
     24 N          63.3347   91.1620   12.8642 N.am    1  UNL1       -0.3042
     25 H          62.5065   91.3564   13.3596 H       1  UNL1        0.1494
     26 C          64.7184   91.5349   15.0314 C.3     1  UNL1        0.1509
     27 C          66.9948   92.6584   15.5838 C.2     1  UNL1        0.4021
     28 O          67.7098   91.3945   15.2079 O.2     1  UNL1       -0.2264
     29 N          65.4991   92.7286   15.4955 N.am    1  UNL1       -0.2640
     30 H          65.0298   93.5581   15.7422 H       1  UNL1        0.1532
     31 C          69.2747   93.8330   15.9992 C.3     1  UNL1        0.2573
     32 O          67.7756   93.8521   16.0480 O.3     1  UNL1       -0.4306
     33 C          63.9984   90.6757   16.0281 C.3     1  UNL1        0.0251
     34 C          64.1871   89.4839   15.1371 C.3     1  UNL1        0.0021
     35 C          63.8097   91.8676   16.9192 C.3     1  UNL1        0.0021
     36 C          63.2785   89.8166   17.0249 C.3     1  UNL1        0.0021
     37 C          63.6335   91.8642   10.3808 C.3     1  UNL1        0.0460
     38 C          64.9690   92.5445   10.4401 C.ar    1  UNL1       -0.0205
     39 C          66.2071   91.8033   10.0307 C.ar    1  UNL1       -0.0042
     40 C          67.5427   92.4837   10.0900 C.ar    1  UNL1       -0.0003
     41 C          67.6401   93.9052   10.5587 C.ar    1  UNL1       -0.0000
     42 C          66.4019   94.6464   10.9682 C.ar    1  UNL1       -0.0003
     43 C          65.0664   93.9661   10.9088 C.ar    1  UNL1       -0.0042
     44 C          60.3081   87.0352   10.2827 C.3     1  UNL1        0.0484
     45 C          60.0988   87.9450    9.1086 C.ar    1  UNL1       -0.0204
     46 C          59.5841   87.3913    7.8131 C.ar    1  UNL1       -0.0042
     47 C          59.3748   88.3011    6.6390 C.ar    1  UNL1       -0.0003
     48 C          59.6802   89.7646    6.7605 C.ar    1  UNL1        0.0015
     49 C          60.1949   90.3184    8.0561 C.ar    1  UNL1       -0.0003
     50 C          60.4042   89.4086    9.2301 C.ar    1  UNL1       -0.0042
     51 C          59.4709   90.6744    5.5864 C.ar    1  UNL1        0.0214
     52 C          58.0881   91.1349    5.2315 C.ar    1  UNL1        0.0990
     53 N          57.8788   92.0447    4.0574 N.ar    1  UNL1       -0.2400
     54 C          59.0523   92.4941    3.2383 C.ar    1  UNL1        0.1284
     55 C          60.4350   92.0337    3.5932 C.ar    1  UNL1        0.1592
     56 F          61.6085   92.4831    2.7740 F       1  UNL1       -0.2025
     57 C          60.6444   91.1238    4.7673 C.ar    1  UNL1        0.0328
@<TRIPOS>BOND
     1    31    32    1
     2    32    27    1
     3    27    28    2
     4    27    29   am
     5    26    29    1
     6    26    22    1
     7    22    23    2
     8    22    24   am
     9    24    21    1
    10    21    37    1
    11    37    38    1
    12    38    39   ar
    13    39    40   ar
    14    40    41   ar
    15    41    42   ar
    16    42    43   ar
    17    21    20    1
    18    20    17    1
    19    17    18    1
    20    17     1    1
    21     1    44    1
    22    44    45    1
    23    45    46   ar
    24    46    47   ar
    25    47    48   ar
    26    48    51    1
    27    51    52   ar
    28    52    53   ar
    29    53    54   ar
    30    54    55   ar
    31    55    56    1
    32    55    57   ar
    33    48    49   ar
    34    49    50   ar
    35     1     2    1
    36     2     3   am
    37     3     4    2
    38     3     6    1
    39     6    11    1
    40    11    12   am
    41    12    13    2
    42    12    15    1
    43    15    16    1
    44     6     7    1
    45     7     8    1
    46     7     9    1
    47     7    10    1
    48    26    33    1
    49    33    34    1
    50    33    35    1
    51    33    36    1
    52    43    38   ar
    53    50    45   ar
    54    57    51   ar
    55    29    30    1
    56    24    25    1
    57    18    19    1
    58     2     5    1
    59    11    14    1
@<TRIPOS>MOLECULE
*****
 57 59 0 0 0
SMALL
GASTEIGER

@<TRIPOS>ATOM
      1 C          62.0155   86.9465   11.5455 C.3     1  UNL1        0.1027
      2 N          62.2240   85.9418   12.6397 N.am    1  UNL1       -0.3019
      3 C          62.5298   84.5136   12.2982 C.2     1  UNL1        0.2405
      4 O          62.6271   84.0901   10.8626 O.2     1  UNL1       -0.2733
      5 H          62.1601   86.2198   13.5819 H       1  UNL1        0.1495
      6 C          62.7384   83.5090   13.3923 C.3     1  UNL1        0.1509
      7 C          63.9856   83.5543   14.2244 C.3     1  UNL1        0.0251
      8 C          64.8111   83.6921   12.9796 C.3     1  UNL1        0.0021
      9 C          63.1601   83.4164   15.4692 C.3     1  UNL1        0.0021
     10 C          65.2328   83.5996   15.0566 C.3     1  UNL1        0.0021
     11 N          61.6997   82.4590   13.6544 N.am    1  UNL1       -0.2640
     12 C          62.0082   81.0156   13.3871 C.2     1  UNL1        0.4021
     13 O          63.3554   80.6222   12.8576 O.2     1  UNL1       -0.2264
     14 H          60.8155   82.7172   14.0019 H       1  UNL1        0.1532
     15 O          60.9695   79.9656   13.6492 O.3     1  UNL1       -0.4306
     16 C          59.6291   80.3570   14.1971 C.3     1  UNL1        0.2573
     17 C          62.0768   88.4134   11.8525 C.3     1  UNL1        0.1303
     18 O          60.8316   89.1491   12.2502 O.3     1  UNL1       -0.3827
     19 H          60.0816   88.5339   12.2597 H       1  UNL1        0.2104
     20 C          63.3833   89.1446   11.7619 C.3     1  UNL1        0.0508
     21 C          63.7739   90.1182   12.8342 C.3     1  UNL1        0.0784
     22 C          65.9921   91.2503   13.5743 C.2     1  UNL1        0.2404
     23 O          66.0104   90.4046   14.8131 O.2     1  UNL1       -0.2733
     24 N          64.8739   91.1070   12.5849 N.am    1  UNL1       -0.3042
     25 H          64.8619   91.6620   11.7718 H       1  UNL1        0.1494
     26 C          67.0921   92.2392   13.3250 C.3     1  UNL1        0.1509
     27 C          66.7844   93.1983   10.9302 C.2     1  UNL1        0.4021
     28 O          65.4397   93.7375   11.3190 O.2     1  UNL1       -0.2264
     29 N          67.6106   92.4492   11.9332 N.am    1  UNL1       -0.2640
     30 H          68.4931   92.0953   11.6780 H       1  UNL1        0.1532
     31 C          68.4449   92.5793    9.0303 C.3     1  UNL1        0.2573
     32 O          67.3028   93.4084    9.5383 O.3     1  UNL1       -0.4306
     33 C          67.6736   93.0181   14.4674 C.3     1  UNL1        0.0251
     34 C          68.9102   92.1707   14.4157 C.3     1  UNL1        0.0021
     35 C          66.4370   93.8655   14.5191 C.3     1  UNL1        0.0021
     36 C          68.2551   93.7970   15.6099 C.3     1  UNL1        0.0021
     37 C          63.0645   90.1028   14.1557 C.3     1  UNL1        0.0460
     38 C          63.2618   88.9539   15.0996 C.ar    1  UNL1       -0.0205
     39 C          62.6153   88.9754   16.4529 C.ar    1  UNL1       -0.0042
     40 C          62.8127   87.8264   17.3968 C.ar    1  UNL1       -0.0003
     41 C          63.6566   86.6560   16.9874 C.ar    1  UNL1       -0.0000
     42 C          64.3032   86.6344   15.6341 C.ar    1  UNL1       -0.0003
     43 C          64.1058   87.7833   14.6902 C.ar    1  UNL1       -0.0042
     44 C          61.7456   86.4841   10.1442 C.3     1  UNL1        0.0484
     45 C          61.0152   87.3785    9.1869 C.ar    1  UNL1       -0.0204
     46 C          60.1092   86.7855    8.1490 C.ar    1  UNL1       -0.0042
     47 C          59.3788   87.6799    7.1916 C.ar    1  UNL1       -0.0003
     48 C          59.5544   89.1674    7.2722 C.ar    1  UNL1        0.0015
     49 C          60.4605   89.7605    8.3102 C.ar    1  UNL1       -0.0003
     50 C          61.1908   88.8660    9.2675 C.ar    1  UNL1       -0.0042
     51 C          58.8240   90.0618    6.3149 C.ar    1  UNL1        0.0214
     52 C          57.3270   90.0114    6.2347 C.ar    1  UNL1        0.0990
     53 N          56.5966   90.9058    5.2774 N.ar    1  UNL1       -0.2400
     54 C          57.3632   91.8507    4.4002 C.ar    1  UNL1        0.1284
     55 C          58.8602   91.9012    4.4804 C.ar    1  UNL1        0.1592
     56 F          59.6268   92.8462    3.6032 F       1  UNL1       -0.2025
     57 C          59.5906   91.0068    5.4377 C.ar    1  UNL1        0.0328
@<TRIPOS>BOND
     1    31    32    1
     2    32    27    1
     3    27    28    2
     4    27    29   am
     5    26    29    1
     6    26    22    1
     7    22    23    2
     8    22    24   am
     9    24    21    1
    10    21    37    1
    11    37    38    1
    12    38    39   ar
    13    39    40   ar
    14    40    41   ar
    15    41    42   ar
    16    42    43   ar
    17    21    20    1
    18    20    17    1
    19    17    18    1
    20    17     1    1
    21     1    44    1
    22    44    45    1
    23    45    46   ar
    24    46    47   ar
    25    47    48   ar
    26    48    51    1
    27    51    52   ar
    28    52    53   ar
    29    53    54   ar
    30    54    55   ar
    31    55    56    1
    32    55    57   ar
    33    48    49   ar
    34    49    50   ar
    35     1     2    1
    36     2     3   am
    37     3     4    2
    38     3     6    1
    39     6    11    1
    40    11    12   am
    41    12    13    2
    42    12    15    1
    43    15    16    1
    44     6     7    1
    45     7     8    1
    46     7     9    1
    47     7    10    1
    48    26    33    1
    49    33    34    1
    50    33    35    1
    51    33    36    1
    52    43    38   ar
    53    50    45   ar
    54    57    51   ar
    55    29    30    1
    56    24    25    1
    57    18    19    1
    58     2     5    1
    59    11    14    1
