@<TRIPOS>MOLECULE
*****
 27 29 0 0 0
SMALL
GASTEIGER

@<TRIPOS>ATOM
      1 C          63.2517   84.2678   12.4721 C.3     1  UNL1        0.0503
      2 C          62.5391   85.1175   11.4621 C.ar    1  UNL1       -0.0180
      3 C          61.5483   86.1487   11.9148 C.ar    1  UNL1       -0.0034
      4 C          60.8357   86.9984   10.9048 C.ar    1  UNL1        0.0064
      5 C          61.1138   86.8169    9.4420 C.ar    1  UNL1        0.0345
      6 BR         60.4012   87.6666    8.4320 Br      1  UNL1       -0.0490
      7 C          62.1046   85.7856    8.9893 C.ar    1  UNL1        0.0064
      8 C          62.8172   84.9360    9.9994 C.ar    1  UNL1       -0.0034
      9 C          62.7971   82.8605   12.7228 C.ar    1  UNL1       -0.0220
     10 C          61.8972   82.5586   13.8843 C.ar    1  UNL1       -0.0043
     11 C          61.4427   81.1512   14.1349 C.ar    1  UNL1       -0.0003
     12 C          61.8880   80.0458   13.2240 C.ar    1  UNL1       -0.0003
     13 C          62.7879   80.3477   12.0625 C.ar    1  UNL1       -0.0046
     14 C          63.2424   81.7551   11.8119 C.ar    1  UNL1       -0.0255
     15 C          64.1422   82.0570   10.6504 C.3     1  UNL1        0.0307
     16 C          64.4189   84.8254   13.2316 C.3     1  UNL1        0.0578
     17 C          64.3227   85.0234   14.7154 C.2     1  UNL1        0.0975
     18 N          64.5734   83.8720   15.6435 N.2     1  UNL1       -0.0908
     19 O          64.7638   83.1053   15.5360 O.2     1  UNL1       -0.4090
     20 H          64.8771   82.5425   16.2765 H       1  UNL1        0.3278
     21 C          64.3178   90.2017   14.2848 C.3     1  UNL1        0.0521
     22 C          63.9733   88.9619   15.0558 C.ar    1  UNL1        0.0594
     23 C          64.3202   87.6126   14.5001 C.ar    1  UNL1        0.0160
     24 C          63.9758   86.3728   15.2711 C.ar    1  UNL1        0.0194
     25 C          63.2845   86.4825   16.5977 C.ar    1  UNL1        0.0219
     26 C          62.9376   87.8319   17.1534 C.ar    1  UNL1        0.0985
     27 N          63.2820   89.0716   16.3824 N.ar    1  UNL1       -0.2481
@<TRIPOS>BOND
     1    21    22    1
     2    22    23   ar
     3    23    24   ar
     4    24    17    1
     5    17    16    1
     6    16     1    1
     7     1     2    1
     8     2     3   ar
     9     3     4   ar
    10     4     5   ar
    11     5     6    1
    12     5     7   ar
    13     7     8   ar
    14     1     9    1
    15     9    10   ar
    16    10    11   ar
    17    11    12   ar
    18    12    13   ar
    19    13    14   ar
    20    14    15    1
    21    17    18    2
    22    18    19    1
    23    24    25   ar
    24    25    26   ar
    25    26    27   ar
    26    27    22   ar
    27     8     2   ar
    28    14     9   ar
    29    19    20    1
@<TRIPOS>MOLECULE
*****
 27 29 0 0 0
SMALL
GASTEIGER

@<TRIPOS>ATOM
      1 C          62.2283   87.3682   10.7648 C.3     1  UNL1        0.0503
      2 C          62.6493   86.3549   11.7876 C.ar    1  UNL1       -0.0180
      3 C          63.5056   86.7706   12.9469 C.ar    1  UNL1       -0.0034
      4 C          63.9266   85.7573   13.9697 C.ar    1  UNL1        0.0064
      5 C          63.4914   84.3284   13.8331 C.ar    1  UNL1        0.0345
      6 BR         63.9124   83.3151   14.8558 Br      1  UNL1       -0.0490
      7 C          62.6351   83.9127   12.6737 C.ar    1  UNL1        0.0064
      8 C          62.2141   84.9260   11.6510 C.ar    1  UNL1       -0.0034
      9 C          61.3219   86.9659    9.6394 C.ar    1  UNL1       -0.0220
     10 C          59.9007   87.4451    9.6132 C.ar    1  UNL1       -0.0043
     11 C          58.9943   87.0429    8.4878 C.ar    1  UNL1       -0.0003
     12 C          59.5091   86.1614    7.3886 C.ar    1  UNL1       -0.0003
     13 C          60.9302   85.6823    7.4148 C.ar    1  UNL1       -0.0046
     14 C          61.8366   86.0846    8.5403 C.ar    1  UNL1       -0.0255
     15 C          63.2578   85.6054    8.5666 C.3     1  UNL1        0.0307
     16 C          62.7138   88.7838   10.8675 C.3     1  UNL1        0.0578
     17 C          62.3391   89.6209   12.0544 C.2     1  UNL1        0.0975
     18 N          60.9213   89.6361   12.5440 N.2     1  UNL1       -0.0908
     19 O          60.2504   89.2756   12.3089 O.2     1  UNL1       -0.4090
     20 H          59.4494   89.4296   12.7701 H       1  UNL1        0.3278
     21 C          65.9973   93.3085   11.9154 C.3     1  UNL1        0.0521
     22 C          65.2113   92.2867   12.6823 C.ar    1  UNL1        0.0594
     23 C          64.1682   91.4647   11.9849 C.ar    1  UNL1        0.0160
     24 C          63.3822   90.4429   12.7518 C.ar    1  UNL1        0.0194
     25 C          63.6393   90.2431   14.2160 C.ar    1  UNL1        0.0219
     26 C          64.6824   91.0651   14.9133 C.ar    1  UNL1        0.0985
     27 N          65.4684   92.0869   14.1465 N.ar    1  UNL1       -0.2481
@<TRIPOS>BOND
     1    21    22    1
     2    22    23   ar
     3    23    24   ar
     4    24    17    1
     5    17    16    1
     6    16     1    1
     7     1     2    1
     8     2     3   ar
     9     3     4   ar
    10     4     5   ar
    11     5     6    1
    12     5     7   ar
    13     7     8   ar
    14     1     9    1
    15     9    10   ar
    16    10    11   ar
    17    11    12   ar
    18    12    13   ar
    19    13    14   ar
    20    14    15    1
    21    17    18    2
    22    18    19    1
    23    24    25   ar
    24    25    26   ar
    25    26    27   ar
    26    27    22   ar
    27     8     2   ar
    28    14     9   ar
    29    19    20    1
@<TRIPOS>MOLECULE
*****
 27 29 0 0 0
SMALL
GASTEIGER

@<TRIPOS>ATOM
      1 C          64.4459   90.8291   14.3105 C.3     1  UNL1        0.0503
      2 C          64.0949   89.5395   14.9913 C.ar    1  UNL1       -0.0180
      3 C          64.5570   88.2355   14.4117 C.ar    1  UNL1       -0.0034
      4 C          64.2061   86.9457   15.0925 C.ar    1  UNL1        0.0064
      5 C          63.3931   86.9601   16.3530 C.ar    1  UNL1        0.0345
      6 BR         63.0421   85.6704   17.0339 Br      1  UNL1       -0.0490
      7 C          62.9310   88.2642   16.9327 C.ar    1  UNL1        0.0064
      8 C          63.2819   89.5538   16.2518 C.ar    1  UNL1       -0.0034
      9 C          65.7607   91.4933   14.5938 C.ar    1  UNL1       -0.0220
     10 C          66.9005   91.3416   13.6305 C.ar    1  UNL1       -0.0043
     11 C          68.2153   92.0057   13.9139 C.ar    1  UNL1       -0.0003
     12 C          68.3903   92.8215   15.1605 C.ar    1  UNL1       -0.0003
     13 C          67.2504   92.9732   16.1236 C.ar    1  UNL1       -0.0046
     14 C          65.9357   92.3090   15.8403 C.ar    1  UNL1       -0.0255
     15 C          64.7958   92.4607   16.8035 C.3     1  UNL1        0.0307
     16 C          63.4820   91.4547   13.3463 C.3     1  UNL1        0.0578
     17 C          63.4702   91.0216   11.9103 C.2     1  UNL1        0.0975
     18 N          64.4420   91.6216   10.9378 N.2     1  UNL1       -0.0908
     19 O          65.0204   92.1668   10.9981 O.2     1  UNL1       -0.4090
     20 H          65.5226   92.4025   10.2429 H       1  UNL1        0.3278
     21 C          62.1533   86.0386   11.2501 C.3     1  UNL1        0.0521
     22 C          61.8282   87.4968   11.1166 C.ar    1  UNL1        0.0594
     23 C          62.8117   88.5301   11.5802 C.ar    1  UNL1        0.0160
     24 C          62.4866   89.9883   11.4466 C.ar    1  UNL1        0.0194
     25 C          61.1779   90.4133   10.8494 C.ar    1  UNL1        0.0219
     26 C          60.1944   89.3800   10.3858 C.ar    1  UNL1        0.0985
     27 N          60.5195   87.9218   10.5194 N.ar    1  UNL1       -0.2481
@<TRIPOS>BOND
     1    21    22    1
     2    22    23   ar
     3    23    24   ar
     4    24    17    1
     5    17    16    1
     6    16     1    1
     7     1     2    1
     8     2     3   ar
     9     3     4   ar
    10     4     5   ar
    11     5     6    1
    12     5     7   ar
    13     7     8   ar
    14     1     9    1
    15     9    10   ar
    16    10    11   ar
    17    11    12   ar
    18    12    13   ar
    19    13    14   ar
    20    14    15    1
    21    17    18    2
    22    18    19    1
    23    24    25   ar
    24    25    26   ar
    25    26    27   ar
    26    27    22   ar
    27     8     2   ar
    28    14     9   ar
    29    19    20    1
@<TRIPOS>MOLECULE
*****
 27 29 0 0 0
SMALL
GASTEIGER

@<TRIPOS>ATOM
      1 C          63.1229   84.8912   12.3609 C.3     1  UNL1        0.0503
      2 C          62.3333   85.5498   11.2689 C.ar    1  UNL1       -0.0180
      3 C          62.6994   85.3162    9.8331 C.ar    1  UNL1       -0.0034
      4 C          61.9097   85.9748    8.7410 C.ar    1  UNL1        0.0064
      5 C          60.7539   86.8670    9.0847 C.ar    1  UNL1        0.0345
      6 BR         59.9642   87.5256    7.9926 Br      1  UNL1       -0.0490
      7 C          60.3878   87.1006   10.5205 C.ar    1  UNL1        0.0064
      8 C          61.1774   86.4420   11.6125 C.ar    1  UNL1       -0.0034
      9 C          62.8368   83.4684   12.7399 C.ar    1  UNL1       -0.0220
     10 C          62.0087   83.1676   13.9539 C.ar    1  UNL1       -0.0043
     11 C          61.7226   81.7447   14.3329 C.ar    1  UNL1       -0.0003
     12 C          62.2646   80.6227   13.4978 C.ar    1  UNL1       -0.0003
     13 C          63.0927   80.9235   12.2839 C.ar    1  UNL1       -0.0046
     14 C          63.3788   82.3463   11.9049 C.ar    1  UNL1       -0.0255
     15 C          64.2069   82.6471   10.6909 C.3     1  UNL1        0.0307
     16 C          64.1988   85.6555   13.0740 C.3     1  UNL1        0.0578
     17 C          63.8316   86.7028   14.0831 C.2     1  UNL1        0.0975
     18 N          63.3935   86.2976   15.4593 N.2     1  UNL1       -0.0908
     19 O          63.2972   85.5962   15.8257 O.2     1  UNL1       -0.4090
     20 H          63.0058   85.5688   16.7158 H       1  UNL1        0.3278
     21 C          65.3585   91.5494   15.1692 C.3     1  UNL1        0.0521
     22 C          64.6660   90.5788   14.2590 C.ar    1  UNL1        0.0594
     23 C          64.5951   89.1262   14.6261 C.ar    1  UNL1        0.0160
     24 C          63.9025   88.1556   13.7160 C.ar    1  UNL1        0.0194
     25 C          63.2809   88.6376   12.4388 C.ar    1  UNL1        0.0219
     26 C          63.3519   90.0902   12.0717 C.ar    1  UNL1        0.0985
     27 N          64.0444   91.0608   12.9819 N.ar    1  UNL1       -0.2481
@<TRIPOS>BOND
     1    21    22    1
     2    22    23   ar
     3    23    24   ar
     4    24    17    1
     5    17    16    1
     6    16     1    1
     7     1     2    1
     8     2     3   ar
     9     3     4   ar
    10     4     5   ar
    11     5     6    1
    12     5     7   ar
    13     7     8   ar
    14     1     9    1
    15     9    10   ar
    16    10    11   ar
    17    11    12   ar
    18    12    13   ar
    19    13    14   ar
    20    14    15    1
    21    17    18    2
    22    18    19    1
    23    24    25   ar
    24    25    26   ar
    25    26    27   ar
    26    27    22   ar
    27     8     2   ar
    28    14     9   ar
    29    19    20    1
@<TRIPOS>MOLECULE
*****
 27 29 0 0 0
SMALL
GASTEIGER

@<TRIPOS>ATOM
      1 C          64.1082   90.1075   13.3206 C.3     1  UNL1        0.0503
      2 C          63.8074   89.1973   14.4743 C.ar    1  UNL1       -0.0180
      3 C          63.0151   89.7043   15.6428 C.ar    1  UNL1       -0.0034
      4 C          62.7144   88.7941   16.7966 C.ar    1  UNL1        0.0064
      5 C          63.2059   87.3770   16.7819 C.ar    1  UNL1        0.0345
      6 BR         62.9051   86.4669   17.9356 Br      1  UNL1       -0.0490
      7 C          63.9982   86.8701   15.6134 C.ar    1  UNL1        0.0064
      8 C          64.2989   87.7802   14.4596 C.ar    1  UNL1       -0.0034
      9 C          65.0043   91.2945   13.5155 C.ar    1  UNL1       -0.0220
     10 C          65.6546   91.5328   14.8461 C.ar    1  UNL1       -0.0043
     11 C          66.5507   92.7198   15.0410 C.ar    1  UNL1       -0.0003
     12 C          66.7966   93.6684   13.9053 C.ar    1  UNL1       -0.0003
     13 C          66.1463   93.4300   12.5748 C.ar    1  UNL1       -0.0046
     14 C          65.2502   92.2431   12.3799 C.ar    1  UNL1       -0.0255
     15 C          64.6000   92.0047   11.0494 C.3     1  UNL1        0.0307
     16 C          63.5127   89.8307   11.9719 C.3     1  UNL1        0.0578
     17 C          62.2896   88.9704   11.8543 C.2     1  UNL1        0.0975
     18 N          60.9971   89.4160   12.4716 N.2     1  UNL1       -0.0908
     19 O          60.7746   90.0585   12.8877 O.2     1  UNL1       -0.4090
     20 H          59.8906   90.1395   13.1874 H       1  UNL1        0.3278
     21 C          62.8212   83.8018   11.9033 C.3     1  UNL1        0.0521
     22 C          62.6247   85.0803   11.1439 C.ar    1  UNL1        0.0594
     23 C          62.5554   86.3861   11.8788 C.ar    1  UNL1        0.0160
     24 C          62.3589   87.6646   11.1193 C.ar    1  UNL1        0.0194
     25 C          62.2316   87.6374    9.6250 C.ar    1  UNL1        0.0219
     26 C          62.3009   86.3316    8.8901 C.ar    1  UNL1        0.0985
     27 N          62.4974   85.0531    9.6496 N.ar    1  UNL1       -0.2481
@<TRIPOS>BOND
     1    21    22    1
     2    22    23   ar
     3    23    24   ar
     4    24    17    1
     5    17    16    1
     6    16     1    1
     7     1     2    1
     8     2     3   ar
     9     3     4   ar
    10     4     5   ar
    11     5     6    1
    12     5     7   ar
    13     7     8   ar
    14     1     9    1
    15     9    10   ar
    16    10    11   ar
    17    11    12   ar
    18    12    13   ar
    19    13    14   ar
    20    14    15    1
    21    17    18    2
    22    18    19    1
    23    24    25   ar
    24    25    26   ar
    25    26    27   ar
    26    27    22   ar
    27     8     2   ar
    28    14     9   ar
    29    19    20    1
@<TRIPOS>MOLECULE
*****
 27 29 0 0 0
SMALL
GASTEIGER

@<TRIPOS>ATOM
      1 C          62.8885   84.8861   12.7582 C.3     1  UNL1        0.0503
      2 C          62.3992   86.0556   11.9564 C.ar    1  UNL1       -0.0180
      3 C          63.0284   87.4050   12.1378 C.ar    1  UNL1       -0.0034
      4 C          62.5391   88.5746   11.3361 C.ar    1  UNL1        0.0064
      5 C          61.4206   88.3947   10.3530 C.ar    1  UNL1        0.0345
      6 BR         60.9313   89.5642    9.5512 Br      1  UNL1       -0.0490
      7 C          60.7914   87.0451   10.1716 C.ar    1  UNL1        0.0064
      8 C          61.2807   85.8756   10.9733 C.ar    1  UNL1       -0.0034
      9 C          63.1136   83.5613   12.0916 C.ar    1  UNL1       -0.0220
     10 C          63.8283   83.4963   10.7743 C.ar    1  UNL1       -0.0043
     11 C          64.0534   82.1716   10.1077 C.ar    1  UNL1       -0.0003
     12 C          63.5637   80.9118   10.7584 C.ar    1  UNL1       -0.0003
     13 C          62.8490   80.9768   12.0755 C.ar    1  UNL1       -0.0046
     14 C          62.6239   82.3016   12.7421 C.ar    1  UNL1       -0.0255
     15 C          61.9093   82.3666   14.0593 C.3     1  UNL1        0.0307
     16 C          63.1527   85.0413   14.2266 C.3     1  UNL1        0.0578
     17 C          64.2952   85.8916   14.6972 C.2     1  UNL1        0.0975
     18 N          65.6964   85.3581   14.6502 N.2     1  UNL1       -0.0908
     19 O          66.0186   84.6681   14.4147 O.2     1  UNL1       -0.4090
     20 H          66.9449   84.5397   14.4725 H       1  UNL1        0.3278
     21 C          64.7737   91.0423   14.2061 C.3     1  UNL1        0.0521
     22 C          64.2759   89.8509   14.9693 C.ar    1  UNL1        0.0594
     23 C          64.5344   88.4670   14.4517 C.ar    1  UNL1        0.0160
     24 C          64.0366   87.2756   15.2150 C.ar    1  UNL1        0.0194
     25 C          63.2802   87.4680   16.4959 C.ar    1  UNL1        0.0219
     26 C          63.0217   88.8518   17.0135 C.ar    1  UNL1        0.0985
     27 N          63.5195   90.0433   16.2503 N.ar    1  UNL1       -0.2481
@<TRIPOS>BOND
     1    21    22    1
     2    22    23   ar
     3    23    24   ar
     4    24    17    1
     5    17    16    1
     6    16     1    1
     7     1     2    1
     8     2     3   ar
     9     3     4   ar
    10     4     5   ar
    11     5     6    1
    12     5     7   ar
    13     7     8   ar
    14     1     9    1
    15     9    10   ar
    16    10    11   ar
    17    11    12   ar
    18    12    13   ar
    19    13    14   ar
    20    14    15    1
    21    17    18    2
    22    18    19    1
    23    24    25   ar
    24    25    26   ar
    25    26    27   ar
    26    27    22   ar
    27     8     2   ar
    28    14     9   ar
    29    19    20    1
@<TRIPOS>MOLECULE
*****
 27 29 0 0 0
SMALL
GASTEIGER

@<TRIPOS>ATOM
      1 C          63.6866   88.9812   13.0777 C.3     1  UNL1        0.0503
      2 C          63.7902   87.5462   13.5017 C.ar    1  UNL1       -0.0180
      3 C          64.5392   87.1854   14.7502 C.ar    1  UNL1       -0.0034
      4 C          64.6429   85.7503   15.1744 C.ar    1  UNL1        0.0064
      5 C          63.9976   84.6761   14.3499 C.ar    1  UNL1        0.0345
      6 BR         64.1012   83.2410   14.7740 Br      1  UNL1       -0.0490
      7 C          63.2486   85.0370   13.1014 C.ar    1  UNL1        0.0064
      8 C          63.1449   86.4720   12.6773 C.ar    1  UNL1       -0.0034
      9 C          64.2366   90.0648   13.9571 C.ar    1  UNL1       -0.0220
     10 C          65.3687   90.9215   13.4727 C.ar    1  UNL1       -0.0043
     11 C          65.9187   92.0050   14.3521 C.ar    1  UNL1       -0.0003
     12 C          65.3367   92.2319   15.7159 C.ar    1  UNL1       -0.0003
     13 C          64.2046   91.3753   16.2002 C.ar    1  UNL1       -0.0046
     14 C          63.6546   90.2917   15.3208 C.ar    1  UNL1       -0.0255
     15 C          62.5225   89.4351   15.8051 C.3     1  UNL1        0.0307
     16 C          63.0329   89.3328   11.7741 C.3     1  UNL1        0.0578
     17 C          61.6074   88.9409   11.5202 C.2     1  UNL1        0.0975
     18 N          60.5207   89.4342   12.4290 N.2     1  UNL1       -0.0908
     19 O          60.5089   89.8981   13.0772 O.2     1  UNL1       -0.4090
     20 H          59.6963   90.0856   13.5044 H       1  UNL1        0.3278
     21 C          62.9675   85.2408    8.1350 C.3     1  UNL1        0.0521
     22 C          61.9486   86.2058    8.6650 C.ar    1  UNL1        0.0594
     23 C          62.2874   87.0909    9.8276 C.ar    1  UNL1        0.0160
     24 C          61.2685   88.0558   10.3575 C.ar    1  UNL1        0.0194
     25 C          59.9109   88.1357    9.7248 C.ar    1  UNL1        0.0219
     26 C          59.5721   87.2506    8.5622 C.ar    1  UNL1        0.0985
     27 N          60.5910   86.2856    8.0323 N.ar    1  UNL1       -0.2481
@<TRIPOS>BOND
     1    21    22    1
     2    22    23   ar
     3    23    24   ar
     4    24    17    1
     5    17    16    1
     6    16     1    1
     7     1     2    1
     8     2     3   ar
     9     3     4   ar
    10     4     5   ar
    11     5     6    1
    12     5     7   ar
    13     7     8   ar
    14     1     9    1
    15     9    10   ar
    16    10    11   ar
    17    11    12   ar
    18    12    13   ar
    19    13    14   ar
    20    14    15    1
    21    17    18    2
    22    18    19    1
    23    24    25   ar
    24    25    26   ar
    25    26    27   ar
    26    27    22   ar
    27     8     2   ar
    28    14     9   ar
    29    19    20    1
@<TRIPOS>MOLECULE
*****
 27 29 0 0 0
SMALL
GASTEIGER

@<TRIPOS>ATOM
      1 C          61.9442   86.9385   11.0193 C.3     1  UNL1        0.0503
      2 C          61.8998   86.2829    9.6709 C.ar    1  UNL1       -0.0180
      3 C          60.6092   86.2214    8.9090 C.ar    1  UNL1       -0.0034
      4 C          60.5647   85.5657    7.5606 C.ar    1  UNL1        0.0064
      5 C          61.8109   84.9715    6.9741 C.ar    1  UNL1        0.0345
      6 BR         61.7665   84.3159    5.6258 Br      1  UNL1       -0.0490
      7 C          63.1015   85.0330    7.7361 C.ar    1  UNL1        0.0064
      8 C          63.1460   85.6887    9.0845 C.ar    1  UNL1       -0.0034
      9 C          62.7762   86.3427   12.1159 C.ar    1  UNL1       -0.0220
     10 C          63.5208   87.2368   13.0627 C.ar    1  UNL1       -0.0043
     11 C          64.3528   86.6410   14.1594 C.ar    1  UNL1       -0.0003
     12 C          64.4403   85.1510   14.3093 C.ar    1  UNL1       -0.0003
     13 C          63.6957   84.2569   13.3626 C.ar    1  UNL1       -0.0046
     14 C          62.8637   84.8528   12.2659 C.ar    1  UNL1       -0.0255
     15 C          62.1192   83.9588   11.3192 C.3     1  UNL1        0.0307
     16 C          61.1566   88.1901   11.2710 C.3     1  UNL1        0.0578
     17 C          61.5306   89.4645   10.5740 C.2     1  UNL1        0.0975
     18 N          60.7835   89.8952    9.3466 N.2     1  UNL1       -0.0908
     19 O          60.1777   89.5867    8.9303 O.2     1  UNL1       -0.4090
     20 H          59.8554   90.0326    8.1718 H       1  UNL1        0.3278
     21 C          64.5759   90.9397   14.5173 C.3     1  UNL1        0.0521
     22 C          64.1743   91.0459   13.0760 C.ar    1  UNL1        0.0594
     23 C          63.0533   90.2022   12.5456 C.ar    1  UNL1        0.0160
     24 C          62.6517   90.3084   11.1043 C.ar    1  UNL1        0.0194
     25 C          63.3711   91.2583   10.1933 C.ar    1  UNL1        0.0219
     26 C          64.4921   92.1021   10.7236 C.ar    1  UNL1        0.0985
     27 N          64.8937   91.9959   12.1650 N.ar    1  UNL1       -0.2481
@<TRIPOS>BOND
     1    21    22    1
     2    22    23   ar
     3    23    24   ar
     4    24    17    1
     5    17    16    1
     6    16     1    1
     7     1     2    1
     8     2     3   ar
     9     3     4   ar
    10     4     5   ar
    11     5     6    1
    12     5     7   ar
    13     7     8   ar
    14     1     9    1
    15     9    10   ar
    16    10    11   ar
    17    11    12   ar
    18    12    13   ar
    19    13    14   ar
    20    14    15    1
    21    17    18    2
    22    18    19    1
    23    24    25   ar
    24    25    26   ar
    25    26    27   ar
    26    27    22   ar
    27     8     2   ar
    28    14     9   ar
    29    19    20    1
@<TRIPOS>MOLECULE
*****
 27 29 0 0 0
SMALL
GASTEIGER

@<TRIPOS>ATOM
      1 C          63.5118   89.7454   12.5283 C.3     1  UNL1        0.0503
      2 C          63.6280   88.3357   13.0273 C.ar    1  UNL1       -0.0180
      3 C          64.2448   88.0629   14.3671 C.ar    1  UNL1       -0.0034
      4 C          64.3610   86.6531   14.8663 C.ar    1  UNL1        0.0064
      5 C          63.8605   85.5161   14.0255 C.ar    1  UNL1        0.0345
      6 BR         63.9767   84.1064   14.5246 Br      1  UNL1       -0.0490
      7 C          63.2437   85.7890   12.6857 C.ar    1  UNL1        0.0064
      8 C          63.1275   87.1987   12.1866 C.ar    1  UNL1       -0.0034
      9 C          64.3918   90.8179   13.0987 C.ar    1  UNL1       -0.0220
     10 C          64.7337   90.8096   14.5592 C.ar    1  UNL1       -0.0043
     11 C          65.6137   91.8821   15.1296 C.ar    1  UNL1       -0.0003
     12 C          66.1518   92.9629   14.2394 C.ar    1  UNL1       -0.0003
     13 C          65.8099   92.9712   12.7790 C.ar    1  UNL1       -0.0046
     14 C          64.9299   91.8987   12.2086 C.ar    1  UNL1       -0.0255
     15 C          64.5880   91.9070   10.7481 C.3     1  UNL1        0.0307
     16 C          62.5155   90.0827   11.4587 C.3     1  UNL1        0.0578
     17 C          61.1681   89.4236   11.4541 C.2     1  UNL1        0.0975
     18 N          60.2996   89.4837   12.6756 N.2     1  UNL1       -0.0908
     19 O          60.3820   89.8101   13.3982 O.2     1  UNL1       -0.4090
     20 H          59.6962   89.7263   14.0311 H       1  UNL1        0.3278
     21 C          59.2979   89.5459    6.6077 C.3     1  UNL1        0.0521
     22 C          59.7541   88.7655    7.8048 C.ar    1  UNL1        0.0594
     23 C          60.2330   89.4847    9.0309 C.ar    1  UNL1        0.0160
     24 C          60.6892   88.7044   10.2279 C.ar    1  UNL1        0.0194
     25 C          60.6665   87.2048   10.1989 C.ar    1  UNL1        0.0219
     26 C          60.1876   86.4857    8.9728 C.ar    1  UNL1        0.0985
     27 N          59.7314   87.2660    7.7757 N.ar    1  UNL1       -0.2481
@<TRIPOS>BOND
     1    21    22    1
     2    22    23   ar
     3    23    24   ar
     4    24    17    1
     5    17    16    1
     6    16     1    1
     7     1     2    1
     8     2     3   ar
     9     3     4   ar
    10     4     5   ar
    11     5     6    1
    12     5     7   ar
    13     7     8   ar
    14     1     9    1
    15     9    10   ar
    16    10    11   ar
    17    11    12   ar
    18    12    13   ar
    19    13    14   ar
    20    14    15    1
    21    17    18    2
    22    18    19    1
    23    24    25   ar
    24    25    26   ar
    25    26    27   ar
    26    27    22   ar
    27     8     2   ar
    28    14     9   ar
    29    19    20    1
