@<TRIPOS>MOLECULE
*****
 45 49 0 0 0
SMALL
GASTEIGER

@<TRIPOS>ATOM
      1 N          64.1857   90.5392   13.2215 N.am    1  UNL1       -0.2770
      2 C          63.0152   90.0166   12.4425 C.2     1  UNL1        0.2253
      3 O          62.0756   89.0309   13.0715 O.2     1  UNL1       -0.2749
      4 C          62.7844   90.4796   11.0346 C.3     1  UNL1        0.0755
      5 C          62.1508   90.6169    9.6820 C.3     1  UNL1        0.0095
      6 C          63.7240   91.4653   10.4057 C.3     1  UNL1        0.0154
      7 C          64.8944   91.9880   11.1847 C.3     1  UNL1        0.0452
      8 C          65.1253   91.5249   12.5926 C.3     1  UNL1        0.1018
      9 C          65.8340   92.9737   10.5557 C.ar    1  UNL1       -0.0197
     10 C          67.1562   92.5119   10.0186 C.ar    1  UNL1       -0.0042
     11 C          68.0958   93.4976    9.3897 C.ar    1  UNL1        0.0005
     12 C          67.7132   94.9451    9.2979 C.ar    1  UNL1        0.0114
     13 C          66.3910   95.4068    9.8350 C.ar    1  UNL1        0.0574
     14 CL         66.0084   96.8543    9.7432 Cl      1  UNL1       -0.0823
     15 C          65.4514   94.4211   10.4639 C.ar    1  UNL1        0.0072
     16 C          66.2958   92.0476   13.3716 C.ar    1  UNL1       -0.0039
     17 C          66.1891   93.3554   14.0985 C.ar    1  UNL1       -0.0018
     18 C          67.3595   93.8780   14.8775 C.ar    1  UNL1        0.0111
     19 C          68.6367   93.0929   14.9297 C.ar    1  UNL1        0.0577
     20 CL         69.8070   93.6156   15.7087 Cl      1  UNL1       -0.0822
     21 C          68.7433   91.7851   14.2029 C.ar    1  UNL1        0.0111
     22 C          67.5728   91.2625   13.4238 C.ar    1  UNL1       -0.0018
     23 C          64.4166   90.0762   14.6295 C.3     1  UNL1        0.0991
     24 C          64.1086   90.9890   15.7792 C.3     1  UNL1        0.0200
     25 C          64.5474   92.0335   16.7622 C.3     1  UNL1        0.0018
     26 C          63.1363   91.5256   16.7875 C.3     1  UNL1        0.0018
     27 C          64.9554   88.7004   14.8877 C.3     1  UNL1        0.1703
     28 S          64.1025   87.6784   15.5792 S.O2    1  UNL1       -0.0115
     29 O          64.9205   86.5807   14.9660 O.2     1  UNL1       -0.1730
     30 O          63.2845   88.7760   16.1924 O.2     1  UNL1       -0.1730
     31 C          63.6904   85.6189   15.2811 C.3     1  UNL1        0.0236
     32 C          63.2496   86.6564   16.2707 C.3     1  UNL1        0.1108
     33 C          62.8087   87.6939   17.2602 C.3     1  UNL1        0.0236
     34 C          62.3967   85.6345   16.9621 C.3     1  UNL1        0.0236
     35 C          61.6247   89.5416   11.1937 C.3     1  UNL1        0.0612
     36 C          61.4584   88.3876   10.2499 C.ar    1  UNL1        0.0888
     37 N          60.2248   88.0657    9.4597 N.ar    1  UNL1       -0.2411
     38 C          60.5005   86.8321    8.6521 C.ar    1  UNL1        0.1084
     39 C          61.9045   86.3917    8.9432 C.ar    1  UNL1        0.0868
     40 S          62.4966   87.3531    9.9307 S.2     1  UNL1       -0.0678
     41 C          62.5953   85.1992    8.3507 C.2     1  UNL1        0.2100
     42 O          62.3765   84.8449    6.9098 O.2     1  UNL1       -0.2881
     43 C          63.5049   84.3611    9.1994 C.3     1  UNL1        0.2072
     44 O          63.1482   84.0790   10.6288 O.3     1  UNL1       -0.3747
     45 H          63.1686   84.9055   11.1363 H       1  UNL1        0.2110
@<TRIPOS>BOND
     1    31    32    1
     2    32    33    1
     3    32    34    1
     4    32    28    1
     5    28    29    2
     6    28    30    2
     7    28    27    1
     8    23    27    1
     9    23    24    1
    10    24    25    1
    11    25    26    1
    12    23     1    1
    13     1     2   am
    14     2     3    2
    15     2     4    1
    16     4     5    1
    17     4    35    1
    18    35    36    1
    19    36    37   ar
    20    37    38   ar
    21    38    39   ar
    22    39    41    1
    23    41    42    2
    24    41    43    1
    25    43    44    1
    26    39    40   ar
    27     4     6    1
    28     6     7    1
    29     7     9    1
    30     9    10   ar
    31    10    11   ar
    32    11    12   ar
    33    12    13   ar
    34    13    14    1
    35    13    15   ar
    36     7     8    1
    37     8    16    1
    38    16    17   ar
    39    17    18   ar
    40    18    19   ar
    41    19    20    1
    42    19    21   ar
    43    21    22   ar
    44    26    24    1
    45     8     1    1
    46    22    16   ar
    47    40    36   ar
    48    15     9   ar
    49    44    45    1
@<TRIPOS>MOLECULE
*****
 45 49 0 0 0
SMALL
GASTEIGER

@<TRIPOS>ATOM
      1 N          63.5333   86.2985   13.2836 N.am    1  UNL1       -0.2770
      2 C          63.4735   87.7560   13.6333 C.2     1  UNL1        0.2253
      3 O          63.9292   88.2225   14.9841 O.2     1  UNL1       -0.2749
      4 C          62.9581   88.7468   12.6321 C.3     1  UNL1        0.0755
      5 C          62.5518   90.0579   12.0270 C.3     1  UNL1        0.0095
      6 C          62.5024   88.2803   11.2813 C.3     1  UNL1        0.0154
      7 C          62.5621   86.8229   10.9317 C.3     1  UNL1        0.0452
      8 C          63.0776   85.8320   11.9328 C.3     1  UNL1        0.1018
      9 C          62.1064   86.3563    9.5808 C.ar    1  UNL1       -0.0197
     10 C          63.0436   85.5876    8.6974 C.ar    1  UNL1       -0.0042
     11 C          62.5879   85.1210    7.3466 C.ar    1  UNL1        0.0005
     12 C          61.1950   85.4232    6.8792 C.ar    1  UNL1        0.0114
     13 C          60.2578   86.1919    7.7627 C.ar    1  UNL1        0.0574
     14 CL         58.8648   86.4942    7.2955 Cl      1  UNL1       -0.0823
     15 C          60.7135   86.6585    9.1135 C.ar    1  UNL1        0.0072
     16 C          63.1374   84.3745   11.5832 C.ar    1  UNL1       -0.0039
     17 C          64.4645   83.7072   11.3743 C.ar    1  UNL1       -0.0018
     18 C          64.5243   82.2497   11.0247 C.ar    1  UNL1        0.0111
     19 C          63.2571   81.4595   10.8841 C.ar    1  UNL1        0.0577
     20 CL         63.3169   80.0021   10.5345 Cl      1  UNL1       -0.0822
     21 C          61.9300   82.1268   11.0930 C.ar    1  UNL1        0.0111
     22 C          61.8702   83.5843   11.4426 C.ar    1  UNL1       -0.0018
     23 C          64.0488   85.3076   14.2848 C.3     1  UNL1        0.0991
     24 C          65.5257   85.1589   14.5009 C.3     1  UNL1        0.0200
     25 C          66.8102   84.4304   14.2379 C.3     1  UNL1        0.0018
     26 C          66.7992   85.6300   15.1382 C.3     1  UNL1        0.0018
     27 C          63.0874   84.4653   15.0699 C.3     1  UNL1        0.1703
     28 S          62.9166   83.0130   14.7356 S.O2    1  UNL1       -0.0115
     29 O          64.3536   82.7634   15.0856 O.2     1  UNL1       -0.1730
     30 O          61.4795   83.2627   14.3857 O.2     1  UNL1       -0.1730
     31 C          61.2555   81.7272   14.4400 C.3     1  UNL1        0.0236
     32 C          62.7457   81.5608   14.4014 C.3     1  UNL1        0.1108
     33 C          64.2359   81.3943   14.3627 C.3     1  UNL1        0.0236
     34 C          62.5748   80.1086   14.0671 C.3     1  UNL1        0.0236
     35 C          63.2726   89.6688   13.7727 C.3     1  UNL1        0.0612
     36 C          64.3395   90.7123   13.6214 C.ar    1  UNL1        0.0888
     37 N          64.3325   91.8440   12.6369 N.ar    1  UNL1       -0.2411
     38 C          65.5893   92.6385   12.8351 C.ar    1  UNL1        0.1084
     39 C          66.3730   91.9977   13.9420 C.ar    1  UNL1        0.0868
     40 S          65.6006   90.8073   14.4280 S.2     1  UNL1       -0.0678
     41 C          67.6968   92.4653   14.4703 C.2     1  UNL1        0.2100
     42 O          68.9432   92.2551   13.6629 O.2     1  UNL1       -0.2881
     43 C          67.7741   93.1432   15.8062 C.3     1  UNL1        0.2072
     44 O          66.5591   93.2131   16.6832 O.3     1  UNL1       -0.3747
     45 H          65.8854   93.7671   16.2588 H       1  UNL1        0.2110
@<TRIPOS>BOND
     1    31    32    1
     2    32    33    1
     3    32    34    1
     4    32    28    1
     5    28    29    2
     6    28    30    2
     7    28    27    1
     8    23    27    1
     9    23    24    1
    10    24    25    1
    11    25    26    1
    12    23     1    1
    13     1     2   am
    14     2     3    2
    15     2     4    1
    16     4     5    1
    17     4    35    1
    18    35    36    1
    19    36    37   ar
    20    37    38   ar
    21    38    39   ar
    22    39    41    1
    23    41    42    2
    24    41    43    1
    25    43    44    1
    26    39    40   ar
    27     4     6    1
    28     6     7    1
    29     7     9    1
    30     9    10   ar
    31    10    11   ar
    32    11    12   ar
    33    12    13   ar
    34    13    14    1
    35    13    15   ar
    36     7     8    1
    37     8    16    1
    38    16    17   ar
    39    17    18   ar
    40    18    19   ar
    41    19    20    1
    42    19    21   ar
    43    21    22   ar
    44    26    24    1
    45     8     1    1
    46    22    16   ar
    47    40    36   ar
    48    15     9   ar
    49    44    45    1
@<TRIPOS>MOLECULE
*****
 45 49 0 0 0
SMALL
GASTEIGER

@<TRIPOS>ATOM
      1 N          63.5361   86.4128   13.3560 N.am    1  UNL1       -0.2770
      2 C          63.4716   87.8678   13.7148 C.2     1  UNL1        0.2253
      3 O          63.9353   88.3286   15.0649 O.2     1  UNL1       -0.2749
      4 C          62.9435   88.8620   12.7236 C.3     1  UNL1        0.0755
      5 C          62.5259   90.1746   12.1296 C.3     1  UNL1        0.0095
      6 C          62.4798   88.4012   11.3735 C.3     1  UNL1        0.0154
      7 C          62.5442   86.9462   11.0147 C.3     1  UNL1        0.0452
      8 C          63.0724   85.9520   12.0059 C.3     1  UNL1        0.1018
      9 C          62.0805   86.4854    9.6646 C.ar    1  UNL1       -0.0197
     10 C          63.0126   85.7206    8.7723 C.ar    1  UNL1       -0.0042
     11 C          62.5489   85.2598    7.4222 C.ar    1  UNL1        0.0005
     12 C          61.1532   85.5638    6.9645 C.ar    1  UNL1        0.0114
     13 C          60.2212   86.3287    7.8569 C.ar    1  UNL1        0.0574
     14 CL         58.8254   86.6327    7.3992 Cl      1  UNL1       -0.0823
     15 C          60.6848   86.7895    9.2069 C.ar    1  UNL1        0.0072
     16 C          63.1369   84.4970   11.6471 C.ar    1  UNL1       -0.0039
     17 C          61.8722   83.7041   11.4995 C.ar    1  UNL1       -0.0018
     18 C          61.9366   82.2491   11.1407 C.ar    1  UNL1        0.0111
     19 C          63.2659   81.5869   10.9295 C.ar    1  UNL1        0.0577
     20 CL         63.3304   80.1319   10.5707 Cl      1  UNL1       -0.0822
     21 C          64.5307   82.3797   11.0771 C.ar    1  UNL1        0.0111
     22 C          64.4662   83.8348   11.4359 C.ar    1  UNL1       -0.0018
     23 C          64.0643   85.4186   14.3472 C.3     1  UNL1        0.0991
     24 C          65.5433   85.2810   14.5561 C.3     1  UNL1        0.0200
     25 C          66.8141   85.7534   15.1980 C.3     1  UNL1        0.0018
     26 C          66.8343   84.5705   14.2759 C.3     1  UNL1        0.0018
     27 C          63.1136   84.5619   15.1295 C.3     1  UNL1        0.1703
     28 S          62.9484   83.1125   14.7798 S.O2    1  UNL1       -0.0115
     29 O          61.5156   83.3640   14.4140 O.2     1  UNL1       -0.1730
     30 O          64.3812   82.8611   15.1455 O.2     1  UNL1       -0.1730
     31 C          64.2741   81.5066   14.3758 C.3     1  UNL1        0.0236
     32 C          62.7833   81.6633   14.4301 C.3     1  UNL1        0.1108
     33 C          61.2926   81.8200   14.4843 C.3     1  UNL1        0.0236
     34 C          62.6183   80.2140   14.0804 C.3     1  UNL1        0.0236
     35 C          63.2621   89.7787   13.8673 C.3     1  UNL1        0.0612
     36 C          64.2778   90.8688   13.6943 C.ar    1  UNL1        0.0888
     37 N          64.9969   91.5870   14.7975 N.ar    1  UNL1       -0.2411
     38 C          65.9163   92.5942   14.1728 C.ar    1  UNL1        0.1084
     39 C          65.7654   92.4984   12.6835 C.ar    1  UNL1        0.0868
     40 S          64.7528   91.4321   12.3877 S.2     1  UNL1       -0.0678
     41 C          66.4985   93.3241   11.6681 C.2     1  UNL1        0.2100
     42 O          67.6069   92.7130   10.8633 O.2     1  UNL1       -0.2881
     43 C          66.1230   94.7611   11.4575 C.3     1  UNL1        0.2072
     44 O          65.1384   95.1300   10.3877 O.3     1  UNL1       -0.3747
     45 H          65.5176   94.9321    9.5171 H       1  UNL1        0.2110
@<TRIPOS>BOND
     1    31    32    1
     2    32    33    1
     3    32    34    1
     4    32    28    1
     5    28    29    2
     6    28    30    2
     7    28    27    1
     8    23    27    1
     9    23    24    1
    10    24    25    1
    11    25    26    1
    12    23     1    1
    13     1     2   am
    14     2     3    2
    15     2     4    1
    16     4     5    1
    17     4    35    1
    18    35    36    1
    19    36    37   ar
    20    37    38   ar
    21    38    39   ar
    22    39    41    1
    23    41    42    2
    24    41    43    1
    25    43    44    1
    26    39    40   ar
    27     4     6    1
    28     6     7    1
    29     7     9    1
    30     9    10   ar
    31    10    11   ar
    32    11    12   ar
    33    12    13   ar
    34    13    14    1
    35    13    15   ar
    36     7     8    1
    37     8    16    1
    38    16    17   ar
    39    17    18   ar
    40    18    19   ar
    41    19    20    1
    42    19    21   ar
    43    21    22   ar
    44    26    24    1
    45     8     1    1
    46    22    16   ar
    47    40    36   ar
    48    15     9   ar
    49    44    45    1
