@<TRIPOS>MOLECULE
*****
 66 73 0 0 0
SMALL
GASTEIGER

@<TRIPOS>ATOM
      1 N          65.3606   89.2242   14.4782 N.3     1  UNL1       -0.1862
      2 C          65.5766   87.9677   15.2683 C.3     1  UNL1        0.1775
      3 C          64.7867   86.7339   14.9459 C.2     1  UNL1        0.2452
      4 O          65.0026   85.4773   15.7361 O.2     1  UNL1       -0.2732
      5 N          63.7809   86.7567   13.8334 N.am    1  UNL1       -0.2541
      6 C          62.9910   85.5230   13.5110 C.3     1  UNL1        0.1577
      7 C          61.9852   85.5458   12.3984 C.2     1  UNL1        0.2445
      8 O          61.1953   84.3120   12.0760 O.2     1  UNL1       -0.2731
      9 N          61.7692   86.8024   11.6082 N.am    1  UNL1       -0.2705
     10 C          62.5591   88.0362   11.9307 C.3     1  UNL1        0.1359
     11 C          63.5649   88.0133   13.0433 C.3     1  UNL1        0.1908
     12 N          64.3548   89.2471   13.3657 N.am    1  UNL1       -0.1863
     13 C          64.1388   90.5037   12.5755 C.2     1  UNL1        0.3191
     14 O          63.1330   90.5265   11.4629 O.2     1  UNL1       -0.2512
     15 N          64.9287   91.7374   12.8979 N.am    1  UNL1       -0.2836
     16 H          65.5889   91.7224   13.6281 H       1  UNL1        0.1513
     17 C          66.1505   90.4580   14.8006 C.3     1  UNL1        0.1188
     18 C          66.3914   92.6941   16.1012 C.2     1  UNL1       -0.0034
     19 C          65.5615   91.5154   15.6866 C.2     1  UNL1       -0.0071
     20 C          63.2069   84.2664   14.3011 C.3     1  UNL1        0.0556
     21 C          63.0533   82.9289   13.6397 C.ar    1  UNL1       -0.0198
     22 C          63.7944   82.6303   12.3703 C.ar    1  UNL1       -0.0011
     23 C          63.6408   81.2928   11.7089 C.ar    1  UNL1        0.0363
     24 C          62.7461   80.2538   12.3170 C.ar    1  UNL1        0.1337
     25 O          62.5925   78.9162   11.6557 O.3     1  UNL1       -0.5055
     26 C          62.0049   80.5523   13.5866 C.ar    1  UNL1        0.0363
     27 C          62.1585   81.8898   14.2479 C.ar    1  UNL1       -0.0011
     28 H          63.0554   78.7298   10.8627 H       1  UNL1        0.2922
     29 C          60.7634   86.8253   10.4957 C.3     1  UNL1        0.1217
     30 C          60.3640   88.1299    9.8723 C.ar    1  UNL1        0.0135
     31 C          60.0829   89.3207   10.7400 C.ar    1  UNL1       -0.0012
     32 C          59.6835   90.6253   10.1167 C.ar    1  UNL1       -0.0002
     33 C          59.5652   90.7390    8.6258 C.ar    1  UNL1        0.0016
     34 C          59.8463   89.5482    7.7581 C.ar    1  UNL1        0.0214
     35 C          59.8122   89.3598    6.2703 C.ar    1  UNL1        0.0722
     36 C          60.1906   87.9389    5.9742 C.ar    1  UNL1        0.0805
     37 N          60.4585   87.2490    7.2788 N.ar    1  UNL1       -0.3241
     38 C          60.8673   85.8161    7.4509 C.3     1  UNL1        0.1305
     39 C          60.2457   88.2436    8.3814 C.ar    1  UNL1        0.0577
     40 C          59.4614   90.4085    5.2567 C.2     1  UNL1        0.2510
     41 O          58.0282   90.7970    5.0448 O.2     1  UNL1       -0.2698
     42 N          60.5438   91.0685    4.4550 N.am    1  UNL1       -0.2791
     43 H          61.4845   90.8135    4.5941 H       1  UNL1        0.1552
     44 C          60.1931   92.1171    3.4414 C.ar    1  UNL1        0.0701
     45 C          60.0614   91.7465    1.9938 C.ar    1  UNL1        0.0191
     46 C          59.7107   92.7950    0.9801 C.ar    1  UNL1        0.0354
     47 C          59.4916   94.2141    1.4140 C.ar    1  UNL1        0.1286
     48 N          59.6232   94.5846    2.8615 N.ar    1  UNL1       -0.2281
     49 C          59.9740   93.5361    3.8752 C.ar    1  UNL1        0.1149
     50 N          59.1409   95.2626    0.4004 N.pl3   1  UNL1       -0.3169
     51 H          59.6050   96.1308    0.4094 H       1  UNL1        0.1482
     52 C          58.0830   94.9884   -0.6271 C.3     1  UNL1        0.1057
     53 C          58.4691   94.4766   -1.9832 C.3     1  UNL1        0.0937
     54 N          57.7274   93.3216   -2.5881 N.3     1  UNL1       -0.2670
     55 C          56.6763   92.6059   -1.7925 C.3     1  UNL1        0.1047
     56 C          55.9347   91.4509   -2.3975 C.3     1  UNL1        0.1595
     57 O          56.2442   91.0117   -3.7979 O.3     1  UNL1       -0.3508
     58 C          57.2953   91.7273   -4.5935 C.3     1  UNL1        0.1595
     59 C          58.0370   92.8824   -3.9885 C.3     1  UNL1        0.1047
     60 C          64.7128   92.9940   12.1078 C.3     1  UNL1        0.1177
     61 C          65.7489   93.4479   11.1226 C.ar    1  UNL1       -0.0025
     62 C          65.7527   94.8677   10.6388 C.ar    1  UNL1       -0.0026
     63 C          66.7888   95.3215    9.6537 C.ar    1  UNL1       -0.0003
     64 C          67.8210   94.3556    9.1522 C.ar    1  UNL1       -0.0000
     65 C          67.8172   92.9357    9.6360 C.ar    1  UNL1       -0.0003
     66 C          66.7811   92.4818   10.6212 C.ar    1  UNL1       -0.0026
@<TRIPOS>BOND
     1    18    19    2
     2    19    17    1
     3    17     1    1
     4     1     2    1
     5     2     3    1
     6     3     4    2
     7     3     5   am
     8     5     6    1
     9     6    20    1
    10    20    21    1
    11    21    22   ar
    12    22    23   ar
    13    23    24   ar
    14    24    25    1
    15    24    26   ar
    16    26    27   ar
    17     6     7    1
    18     7     8    2
    19     7     9   am
    20     9    29    1
    21    29    30    1
    22    30    31   ar
    23    31    32   ar
    24    32    33   ar
    25    33    34   ar
    26    34    35   ar
    27    35    40    1
    28    40    41    2
    29    40    42   am
    30    42    44    1
    31    44    45   ar
    32    45    46   ar
    33    46    47   ar
    34    47    50    1
    35    50    52    1
    36    52    53    1
    37    53    54    1
    38    54    55    1
    39    55    56    1
    40    56    57    1
    41    57    58    1
    42    58    59    1
    43    47    48   ar
    44    48    49   ar
    45    35    36   ar
    46    36    37   ar
    47    37    38    1
    48    37    39   ar
    49     9    10    1
    50    10    11    1
    51    11    12    1
    52    12    13   am
    53    13    14    2
    54    13    15   am
    55    15    60    1
    56    60    61    1
    57    61    62   ar
    58    62    63   ar
    59    63    64   ar
    60    64    65   ar
    61    65    66   ar
    62    12     1    1
    63    66    61   ar
    64    11     5    1
    65    27    21   ar
    66    39    30   ar
    67    39    34   ar
    68    49    44   ar
    69    59    54    1
    70    25    28    1
    71    42    43    1
    72    50    51    1
    73    15    16    1
@<TRIPOS>MOLECULE
*****
 66 73 0 0 0
SMALL
GASTEIGER

@<TRIPOS>ATOM
      1 N          65.3665   89.2202   14.4635 N.3     1  UNL1       -0.1862
      2 C          65.5778   87.9619   15.2522 C.3     1  UNL1        0.1775
      3 C          64.7854   86.7306   14.9265 C.2     1  UNL1        0.2452
      4 O          64.9968   85.4723   15.7152 O.2     1  UNL1       -0.2732
      5 N          63.7817   86.7576   13.8122 N.am    1  UNL1       -0.2541
      6 C          62.9893   85.5263   13.4865 C.3     1  UNL1        0.1577
      7 C          61.9856   85.5533   12.3722 C.2     1  UNL1        0.2445
      8 O          61.1932   84.3220   12.0466 O.2     1  UNL1       -0.2731
      9 N          61.7742   86.8116   11.5835 N.am    1  UNL1       -0.2705
     10 C          62.5666   88.0429   11.9091 C.3     1  UNL1        0.1359
     11 C          63.5704   88.0159   13.0235 C.3     1  UNL1        0.1908
     12 N          64.3628   89.2471   13.3492 N.am    1  UNL1       -0.1863
     13 C          64.1514   90.5055   12.5604 C.2     1  UNL1        0.3191
     14 O          63.1477   90.5325   11.4461 O.2     1  UNL1       -0.2512
     15 N          64.9438   91.7367   12.8861 N.am    1  UNL1       -0.2836
     16 H          65.6026   91.7190   13.6175 H       1  UNL1        0.1513
     17 C          66.1589   90.4514   14.7891 C.3     1  UNL1        0.1188
     18 C          66.4056   92.6569   16.1401 C.2     1  UNL1       -0.0034
     19 C          65.5518   91.5326   15.6332 C.2     1  UNL1       -0.0071
     20 C          63.2006   84.2680   14.2752 C.3     1  UNL1        0.0556
     21 C          63.0553   82.9320   13.6090 C.ar    1  UNL1       -0.0198
     22 C          63.8497   82.6184   12.3760 C.ar    1  UNL1       -0.0011
     23 C          63.7044   81.2823   11.7098 C.ar    1  UNL1        0.0363
     24 C          62.7646   80.2599   12.2766 C.ar    1  UNL1        0.1337
     25 O          62.6192   78.9238   11.6104 O.3     1  UNL1       -0.5055
     26 C          61.9700   80.5735   13.5097 C.ar    1  UNL1        0.0363
     27 C          62.1154   81.9095   14.1759 C.ar    1  UNL1       -0.0011
     28 H          63.1155   78.7279   10.8401 H       1  UNL1        0.2922
     29 C          60.7705   86.8386   10.4692 C.3     1  UNL1        0.1217
     30 C          60.3675   88.1461    9.8542 C.ar    1  UNL1        0.0135
     31 C          60.0911   89.3329   10.7290 C.ar    1  UNL1       -0.0012
     32 C          59.6882   90.6403   10.1140 C.ar    1  UNL1       -0.0002
     33 C          59.5617   90.7610    8.6243 C.ar    1  UNL1        0.0016
     34 C          59.8381   89.5743    7.7495 C.ar    1  UNL1        0.0214
     35 C          59.7959   89.3930    6.2611 C.ar    1  UNL1        0.0722
     36 C          60.1727   87.9735    5.9562 C.ar    1  UNL1        0.0805
     37 N          60.4478   87.2776    7.2561 N.ar    1  UNL1       -0.3241
     38 C          60.8577   85.8439    7.4191 C.3     1  UNL1        0.1305
     39 C          60.2410   88.2669    8.3644 C.ar    1  UNL1        0.0577
     40 C          59.4394   90.4464    5.2543 C.2     1  UNL1        0.2510
     41 O          58.0041   90.8289    5.0452 O.2     1  UNL1       -0.2698
     42 N          60.5182   91.1172    4.4567 N.am    1  UNL1       -0.2791
     43 H          61.4602   90.8662    4.5940 H       1  UNL1        0.1552
     44 C          60.1618   92.1705    3.4500 C.ar    1  UNL1        0.0701
     45 C          59.8708   91.7832    2.0304 C.ar    1  UNL1        0.0191
     46 C          59.5144   92.8364    1.0237 C.ar    1  UNL1        0.0354
     47 C          59.4491   94.2770    1.4365 C.ar    1  UNL1        0.1286
     48 N          59.7401   94.6644    2.8561 N.ar    1  UNL1       -0.2281
     49 C          60.0965   93.6111    3.8628 C.ar    1  UNL1        0.1149
     50 N          59.0927   95.3303    0.4298 N.pl3   1  UNL1       -0.3169
     51 H          58.1479   95.5459    0.2563 H       1  UNL1        0.1482
     52 C          60.1759   96.0553   -0.3127 C.3     1  UNL1        0.1057
     53 C          61.4636   95.3557   -0.6325 C.3     1  UNL1        0.0937
     54 N          62.5737   95.3299    0.3760 N.3     1  UNL1       -0.2670
     55 C          63.0820   94.0190    0.8986 C.3     1  UNL1        0.1047
     56 C          64.1921   93.9933    1.9071 C.3     1  UNL1        0.1595
     57 O          64.7939   95.2785    2.3929 O.3     1  UNL1       -0.3508
     58 C          64.2856   96.5894    1.8703 C.3     1  UNL1        0.1595
     59 C          63.1755   96.6151    0.8618 C.3     1  UNL1        0.1047
     60 C          64.7325   92.9950   12.0974 C.3     1  UNL1        0.1177
     61 C          65.7577   93.4320   11.0935 C.ar    1  UNL1       -0.0025
     62 C          66.8264   92.4780   10.6490 C.ar    1  UNL1       -0.0026
     63 C          67.8517   92.9150    9.6451 C.ar    1  UNL1       -0.0003
     64 C          67.8082   94.3061    9.0856 C.ar    1  UNL1       -0.0000
     65 C          66.7394   95.2602    9.5301 C.ar    1  UNL1       -0.0003
     66 C          65.7142   94.8232   10.5340 C.ar    1  UNL1       -0.0026
@<TRIPOS>BOND
     1    18    19    2
     2    19    17    1
     3    17     1    1
     4     1     2    1
     5     2     3    1
     6     3     4    2
     7     3     5   am
     8     5     6    1
     9     6    20    1
    10    20    21    1
    11    21    22   ar
    12    22    23   ar
    13    23    24   ar
    14    24    25    1
    15    24    26   ar
    16    26    27   ar
    17     6     7    1
    18     7     8    2
    19     7     9   am
    20     9    29    1
    21    29    30    1
    22    30    31   ar
    23    31    32   ar
    24    32    33   ar
    25    33    34   ar
    26    34    35   ar
    27    35    40    1
    28    40    41    2
    29    40    42   am
    30    42    44    1
    31    44    45   ar
    32    45    46   ar
    33    46    47   ar
    34    47    50    1
    35    50    52    1
    36    52    53    1
    37    53    54    1
    38    54    55    1
    39    55    56    1
    40    56    57    1
    41    57    58    1
    42    58    59    1
    43    47    48   ar
    44    48    49   ar
    45    35    36   ar
    46    36    37   ar
    47    37    38    1
    48    37    39   ar
    49     9    10    1
    50    10    11    1
    51    11    12    1
    52    12    13   am
    53    13    14    2
    54    13    15   am
    55    15    60    1
    56    60    61    1
    57    61    62   ar
    58    62    63   ar
    59    63    64   ar
    60    64    65   ar
    61    65    66   ar
    62    12     1    1
    63    66    61   ar
    64    11     5    1
    65    27    21   ar
    66    39    30   ar
    67    39    34   ar
    68    49    44   ar
    69    59    54    1
    70    25    28    1
    71    42    43    1
    72    50    51    1
    73    15    16    1
@<TRIPOS>MOLECULE
*****
 66 73 0 0 0
SMALL
GASTEIGER

@<TRIPOS>ATOM
      1 N          65.6505   89.9941   13.8593 N.3     1  UNL1       -0.1862
      2 C          66.0820   88.8512   14.7297 C.3     1  UNL1        0.1775
      3 C          65.2923   87.5760   14.7393 C.2     1  UNL1        0.2452
      4 O          65.7239   86.4331   15.6098 O.2     1  UNL1       -0.2732
      5 N          64.0712   87.4435   13.8784 N.am    1  UNL1       -0.2541
      6 C          63.2815   86.1683   13.8880 C.3     1  UNL1        0.1577
      7 C          62.0603   86.0358   13.0272 C.2     1  UNL1        0.2445
      8 O          61.2706   84.7606   13.0367 O.2     1  UNL1       -0.2731
      9 N          61.6287   87.1787   12.1567 N.am    1  UNL1       -0.2705
     10 C          62.4184   88.4540   12.1471 C.3     1  UNL1        0.1359
     11 C          63.6396   88.5864   13.0080 C.3     1  UNL1        0.1908
     12 N          64.4293   89.8616   12.9985 N.am    1  UNL1       -0.1863
     13 C          63.9977   91.0045   12.1280 C.2     1  UNL1        0.3191
     14 O          62.7765   90.8721   11.2671 O.2     1  UNL1       -0.2512
     15 N          64.7874   92.2798   12.1184 N.am    1  UNL1       -0.2836
     16 H          65.5889   92.3667   12.6834 H       1  UNL1        0.1513
     17 C          66.4402   91.2694   13.8497 C.3     1  UNL1        0.1188
     18 C          67.0829   92.7324   15.8982 C.2     1  UNL1       -0.0034
     19 C          67.3741   91.5817   14.9811 C.2     1  UNL1       -0.0071
     20 C          63.7130   85.0254   14.7584 C.3     1  UNL1        0.0556
     21 C          63.4379   83.6135   14.3334 C.ar    1  UNL1       -0.0198
     22 C          64.2883   82.9682   13.2797 C.ar    1  UNL1       -0.0011
     23 C          64.0132   81.5562   12.8547 C.ar    1  UNL1        0.0363
     24 C          62.8877   80.7895   13.4833 C.ar    1  UNL1        0.1337
     25 O          62.6126   79.3775   13.0583 O.3     1  UNL1       -0.5055
     26 C          62.0372   81.4348   14.5371 C.ar    1  UNL1        0.0363
     27 C          62.3123   82.8467   14.9621 C.ar    1  UNL1       -0.0011
     28 H          63.1439   78.9745   12.4001 H       1  UNL1        0.2922
     29 C          60.4075   87.0463   11.2958 C.3     1  UNL1        0.1217
     30 C          60.5269   87.1479    9.8040 C.ar    1  UNL1        0.0135
     31 C          60.9974   85.9673    9.0071 C.ar    1  UNL1       -0.0012
     32 C          61.1167   86.0689    7.5154 C.ar    1  UNL1       -0.0002
     33 C          60.7656   87.3509    6.8205 C.ar    1  UNL1        0.0016
     34 C          60.2951   88.5315    7.6173 C.ar    1  UNL1        0.0214
     35 C          59.8809   89.9151    7.2123 C.ar    1  UNL1        0.0722
     36 C          59.5055   90.6686    8.4538 C.ar    1  UNL1        0.0805
     37 N          59.6877   89.7508    9.6260 N.ar    1  UNL1       -0.3241
     38 C          59.4276   90.0935   11.0629 C.3     1  UNL1        0.1305
     39 C          60.1758   88.4299    9.1091 C.ar    1  UNL1        0.0577
     40 C          59.8478   90.4510    5.8116 C.2     1  UNL1        0.2510
     41 O          58.6468   90.2121    4.9453 O.2     1  UNL1       -0.2698
     42 N          61.0157   91.2259    5.2774 N.am    1  UNL1       -0.2791
     43 H          61.8040   91.3827    5.8460 H       1  UNL1        0.1552
     44 C          60.9827   91.7619    3.8768 C.ar    1  UNL1        0.0701
     45 C          62.1979   91.6545    3.0039 C.ar    1  UNL1        0.0191
     46 C          62.1650   92.1905    1.6034 C.ar    1  UNL1        0.0354
     47 C          60.9170   92.8337    1.0756 C.ar    1  UNL1        0.1286
     48 N          59.7018   92.9411    1.9485 N.ar    1  UNL1       -0.2281
     49 C          59.7347   92.4051    3.3490 C.ar    1  UNL1        0.1149
     50 N          60.8840   93.3697   -0.3249 N.pl3   1  UNL1       -0.3169
     51 H          61.2886   92.8535   -1.0592 H       1  UNL1        0.1482
     52 C          60.2345   94.6921   -0.6069 C.3     1  UNL1        0.1057
     53 C          59.3254   94.8442   -1.7902 C.3     1  UNL1        0.0937
     54 N          57.9773   94.1864   -1.7898 N.3     1  UNL1       -0.2670
     55 C          57.8681   92.6999   -1.9578 C.3     1  UNL1        0.1047
     56 C          56.5199   92.0422   -1.9574 C.3     1  UNL1        0.1595
     57 O          55.2812   92.8710   -1.7890 O.3     1  UNL1       -0.3508
     58 C          55.3904   94.3575   -1.6210 C.3     1  UNL1        0.1595
     59 C          56.7386   95.0153   -1.6214 C.3     1  UNL1        0.1047
     60 C          64.3559   93.4226   11.2480 C.3     1  UNL1        0.1177
     61 C          65.3839   94.2718   10.5608 C.ar    1  UNL1       -0.0025
     62 C          65.2794   95.7671   10.6152 C.ar    1  UNL1       -0.0026
     63 C          66.3074   96.6163    9.9280 C.ar    1  UNL1       -0.0003
     64 C          67.4398   95.9701    9.1864 C.ar    1  UNL1       -0.0000
     65 C          67.5443   94.4746    9.1320 C.ar    1  UNL1       -0.0003
     66 C          66.5163   93.6255    9.8192 C.ar    1  UNL1       -0.0026
@<TRIPOS>BOND
     1    18    19    2
     2    19    17    1
     3    17     1    1
     4     1     2    1
     5     2     3    1
     6     3     4    2
     7     3     5   am
     8     5     6    1
     9     6    20    1
    10    20    21    1
    11    21    22   ar
    12    22    23   ar
    13    23    24   ar
    14    24    25    1
    15    24    26   ar
    16    26    27   ar
    17     6     7    1
    18     7     8    2
    19     7     9   am
    20     9    29    1
    21    29    30    1
    22    30    31   ar
    23    31    32   ar
    24    32    33   ar
    25    33    34   ar
    26    34    35   ar
    27    35    40    1
    28    40    41    2
    29    40    42   am
    30    42    44    1
    31    44    45   ar
    32    45    46   ar
    33    46    47   ar
    34    47    50    1
    35    50    52    1
    36    52    53    1
    37    53    54    1
    38    54    55    1
    39    55    56    1
    40    56    57    1
    41    57    58    1
    42    58    59    1
    43    47    48   ar
    44    48    49   ar
    45    35    36   ar
    46    36    37   ar
    47    37    38    1
    48    37    39   ar
    49     9    10    1
    50    10    11    1
    51    11    12    1
    52    12    13   am
    53    13    14    2
    54    13    15   am
    55    15    60    1
    56    60    61    1
    57    61    62   ar
    58    62    63   ar
    59    63    64   ar
    60    64    65   ar
    61    65    66   ar
    62    12     1    1
    63    66    61   ar
    64    11     5    1
    65    27    21   ar
    66    39    30   ar
    67    39    34   ar
    68    49    44   ar
    69    59    54    1
    70    25    28    1
    71    42    43    1
    72    50    51    1
    73    15    16    1
@<TRIPOS>MOLECULE
*****
 66 73 0 0 0
SMALL
GASTEIGER

@<TRIPOS>ATOM
      1 N          65.6773   89.9834   13.8669 N.3     1  UNL1       -0.1862
      2 C          66.1190   88.8375   14.7280 C.3     1  UNL1        0.1775
      3 C          65.3373   87.5573   14.7318 C.2     1  UNL1        0.2452
      4 O          65.7791   86.4113   15.5930 O.2     1  UNL1       -0.2732
      5 N          64.1139   87.4231   13.8744 N.am    1  UNL1       -0.2541
      6 C          63.3321   86.1429   13.8782 C.3     1  UNL1        0.1577
      7 C          62.1087   86.0087   13.0208 C.2     1  UNL1        0.2445
      8 O          61.3270   84.7285   13.0246 O.2     1  UNL1       -0.2731
      9 N          61.6669   87.1547   12.1596 N.am    1  UNL1       -0.2705
     10 C          62.4487   88.4348   12.1558 C.3     1  UNL1        0.1359
     11 C          63.6722   88.5690   13.0133 C.3     1  UNL1        0.1908
     12 N          64.4539   89.8492   13.0095 N.am    1  UNL1       -0.1863
     13 C          64.0121   90.9952   12.1483 C.2     1  UNL1        0.3191
     14 O          62.7887   90.8610   11.2909 O.2     1  UNL1       -0.2512
     15 N          64.7939   92.2754   12.1445 N.am    1  UNL1       -0.2836
     16 H          65.5969   92.3635   12.7072 H       1  UNL1        0.1513
     17 C          66.4591   91.2636   13.8631 C.3     1  UNL1        0.1188
     18 C          68.0748   92.0232   15.7505 C.2     1  UNL1       -0.0034
     19 C          66.7013   91.9983   15.1482 C.2     1  UNL1       -0.0071
     20 C          63.7738   84.9969   14.7393 C.3     1  UNL1        0.0556
     21 C          63.4623   83.5878   14.3304 C.ar    1  UNL1       -0.0198
     22 C          64.3324   82.8876   13.3291 C.ar    1  UNL1       -0.0011
     23 C          64.0208   81.4785   12.9202 C.ar    1  UNL1        0.0363
     24 C          62.8391   80.7695   13.5124 C.ar    1  UNL1        0.1337
     25 O          62.5275   79.3604   13.1035 O.3     1  UNL1       -0.5055
     26 C          61.9689   81.4697   14.5137 C.ar    1  UNL1        0.0363
     27 C          62.2804   82.8788   14.9227 C.ar    1  UNL1       -0.0011
     28 H          63.0711   78.9230   12.4780 H       1  UNL1        0.2922
     29 C          60.4435   87.0204   11.3022 C.3     1  UNL1        0.1217
     30 C          60.5564   87.1357    9.8109 C.ar    1  UNL1        0.0135
     31 C          61.0396   85.9680    9.0029 C.ar    1  UNL1       -0.0012
     32 C          61.1525   86.0832    7.5116 C.ar    1  UNL1       -0.0002
     33 C          60.7822   87.3662    6.8284 C.ar    1  UNL1        0.0016
     34 C          60.2990   88.5339    7.6364 C.ar    1  UNL1        0.0214
     35 C          59.8652   89.9152    7.2441 C.ar    1  UNL1        0.0722
     36 C          59.4842   90.6536    8.4929 C.ar    1  UNL1        0.0805
     37 N          59.6825   89.7287    9.6570 N.ar    1  UNL1       -0.3241
     38 C          59.4228   90.0563   11.0976 C.3     1  UNL1        0.1305
     39 C          60.1861   88.4187    9.1277 C.ar    1  UNL1        0.0577
     40 C          59.8203   90.4620    5.8480 C.2     1  UNL1        0.2510
     41 O          58.5939   90.2691    5.0060 O.2     1  UNL1       -0.2698
     42 N          61.0017   91.2018    5.2939 N.am    1  UNL1       -0.2791
     43 H          61.8066   91.3283    5.8465 H       1  UNL1        0.1552
     44 C          60.9569   91.7486    3.8979 C.ar    1  UNL1        0.0701
     45 C          62.1718   91.6685    3.0217 C.ar    1  UNL1        0.0191
     46 C          62.1270   92.2154    1.6257 C.ar    1  UNL1        0.0354
     47 C          60.8674   92.8423    1.1058 C.ar    1  UNL1        0.1286
     48 N          59.6525   92.9223    1.9819 N.ar    1  UNL1       -0.2281
     49 C          59.6972   92.3755    3.3780 C.ar    1  UNL1        0.1149
     50 N          60.8226   93.3891   -0.2902 N.pl3   1  UNL1       -0.3169
     51 H          60.0539   93.9305   -0.5824 H       1  UNL1        0.1482
     52 C          61.9489   93.1112   -1.2411 C.3     1  UNL1        0.1057
     53 C          62.4648   94.2020   -2.1321 C.3     1  UNL1        0.0937
     54 N          63.6949   94.9680   -1.7447 N.3     1  UNL1       -0.2670
     55 C          64.2334   94.8658   -0.3484 C.3     1  UNL1        0.1047
     56 C          65.4635   95.6318    0.0390 C.3     1  UNL1        0.1595
     57 O          66.1551   96.5000   -0.9699 O.3     1  UNL1       -0.3508
     58 C          65.6166   96.6023   -2.3662 C.3     1  UNL1        0.1595
     59 C          64.3865   95.8362   -2.7535 C.3     1  UNL1        0.1047
     60 C          64.3521   93.4214   11.2833 C.3     1  UNL1        0.1177
     61 C          65.3679   94.2301   10.5322 C.ar    1  UNL1       -0.0025
     62 C          66.5970   93.5680    9.9837 C.ar    1  UNL1       -0.0026
     63 C          67.6127   94.3767    9.2325 C.ar    1  UNL1       -0.0003
     64 C          67.3993   95.8475    9.0298 C.ar    1  UNL1       -0.0000
     65 C          66.1701   96.5097    9.5782 C.ar    1  UNL1       -0.0003
     66 C          65.1544   95.7010   10.3294 C.ar    1  UNL1       -0.0026
@<TRIPOS>BOND
     1    18    19    2
     2    19    17    1
     3    17     1    1
     4     1     2    1
     5     2     3    1
     6     3     4    2
     7     3     5   am
     8     5     6    1
     9     6    20    1
    10    20    21    1
    11    21    22   ar
    12    22    23   ar
    13    23    24   ar
    14    24    25    1
    15    24    26   ar
    16    26    27   ar
    17     6     7    1
    18     7     8    2
    19     7     9   am
    20     9    29    1
    21    29    30    1
    22    30    31   ar
    23    31    32   ar
    24    32    33   ar
    25    33    34   ar
    26    34    35   ar
    27    35    40    1
    28    40    41    2
    29    40    42   am
    30    42    44    1
    31    44    45   ar
    32    45    46   ar
    33    46    47   ar
    34    47    50    1
    35    50    52    1
    36    52    53    1
    37    53    54    1
    38    54    55    1
    39    55    56    1
    40    56    57    1
    41    57    58    1
    42    58    59    1
    43    47    48   ar
    44    48    49   ar
    45    35    36   ar
    46    36    37   ar
    47    37    38    1
    48    37    39   ar
    49     9    10    1
    50    10    11    1
    51    11    12    1
    52    12    13   am
    53    13    14    2
    54    13    15   am
    55    15    60    1
    56    60    61    1
    57    61    62   ar
    58    62    63   ar
    59    63    64   ar
    60    64    65   ar
    61    65    66   ar
    62    12     1    1
    63    66    61   ar
    64    11     5    1
    65    27    21   ar
    66    39    30   ar
    67    39    34   ar
    68    49    44   ar
    69    59    54    1
    70    25    28    1
    71    42    43    1
    72    50    51    1
    73    15    16    1
@<TRIPOS>MOLECULE
*****
 66 73 0 0 0
SMALL
GASTEIGER

@<TRIPOS>ATOM
      1 N          64.5275   83.1530   13.2587 N.3     1  UNL1       -0.1862
      2 C          65.1459   84.0340   14.3035 C.3     1  UNL1        0.1775
      3 C          64.7342   85.4723   14.4111 C.2     1  UNL1        0.2452
      4 O          65.3526   86.3533   15.4559 O.2     1  UNL1       -0.2732
      5 N          63.7042   86.0298   13.4739 N.am    1  UNL1       -0.2541
      6 C          63.2926   87.4682   13.5815 C.3     1  UNL1        0.1577
      7 C          62.2626   88.0257   12.6443 C.2     1  UNL1        0.2445
      8 O          61.8510   89.4641   12.7519 O.2     1  UNL1       -0.2731
      9 N          61.6442   87.1447   11.5995 N.am    1  UNL1       -0.2705
     10 C          62.0559   85.7063   11.4919 C.3     1  UNL1        0.1359
     11 C          63.0859   85.1489   12.4291 C.3     1  UNL1        0.1908
     12 N          63.4976   83.7105   12.3215 N.am    1  UNL1       -0.1863
     13 C          62.8792   82.8296   11.2767 C.2     1  UNL1        0.3191
     14 O          61.8492   83.3870   10.3395 O.2     1  UNL1       -0.2512
     15 N          63.2908   81.3912   11.1691 N.am    1  UNL1       -0.2836
     16 H          63.9668   81.0253   11.7842 H       1  UNL1        0.1513
     17 C          64.9392   81.7146   13.1511 C.3     1  UNL1        0.1188
     18 C          62.8222   80.4727   14.0030 C.2     1  UNL1       -0.0034
     19 C          64.3066   80.6850   14.0397 C.2     1  UNL1       -0.0071
     20 C          63.9109   88.3491   14.6263 C.3     1  UNL1        0.0556
     21 C          64.5939   89.6229   14.2249 C.ar    1  UNL1       -0.0198
     22 C          65.7477   90.1414   15.0308 C.ar    1  UNL1       -0.0011
     23 C          66.4307   91.4152   14.6294 C.ar    1  UNL1        0.0363
     24 C          65.9597   92.1704   13.4221 C.ar    1  UNL1        0.1337
     25 O          66.6426   93.4442   13.0207 O.3     1  UNL1       -0.5055
     26 C          64.8058   91.6519   12.6160 C.ar    1  UNL1        0.0363
     27 C          64.1228   90.3781   13.0174 C.ar    1  UNL1       -0.0011
     28 H          67.3634   93.7681   13.5242 H       1  UNL1        0.2922
     29 C          60.6142   87.7022   10.6623 C.3     1  UNL1        0.1217
     30 C          60.9610   88.8538    9.7658 C.ar    1  UNL1        0.0135
     31 C          61.9935   89.8538   10.1948 C.ar    1  UNL1       -0.0012
     32 C          62.3402   91.0053    9.2983 C.ar    1  UNL1       -0.0002
     33 C          61.6545   91.1569    7.9729 C.ar    1  UNL1        0.0016
     34 C          60.6220   90.1569    7.5439 C.ar    1  UNL1        0.0214
     35 C          59.7857   90.0469    6.3036 C.ar    1  UNL1        0.0722
     36 C          58.9221   88.8273    6.4335 C.ar    1  UNL1        0.0805
     37 N          59.2247   88.1837    7.7541 N.ar    1  UNL1       -0.3241
     38 C          58.5884   86.9371    8.2937 C.3     1  UNL1        0.1305
     39 C          60.2753   89.0053    8.4404 C.ar    1  UNL1        0.0577
     40 C          59.8090   90.9908    5.1379 C.2     1  UNL1        0.2510
     41 O          58.5319   91.6014    4.6417 O.2     1  UNL1       -0.2698
     42 N          61.1093   91.3240    4.4685 N.am    1  UNL1       -0.2791
     43 H          61.9475   90.9232    4.7942 H       1  UNL1        0.1552
     44 C          61.1326   92.2678    3.3029 C.ar    1  UNL1        0.0701
     45 C          62.3404   92.3343    2.4159 C.ar    1  UNL1        0.0191
     46 C          62.3638   93.2781    1.2503 C.ar    1  UNL1        0.0354
     47 C          61.1795   94.1554    0.9717 C.ar    1  UNL1        0.1286
     48 N          59.9717   94.0889    1.8588 N.ar    1  UNL1       -0.2281
     49 C          59.9483   93.1451    3.0244 C.ar    1  UNL1        0.1149
     50 N          61.2028   95.0992   -0.1939 N.pl3   1  UNL1       -0.3169
     51 H          61.8153   95.8699   -0.1910 H       1  UNL1        0.1482
     52 C          60.2928   94.8687   -1.3639 C.3     1  UNL1        0.1057
     53 C          58.9125   95.4557   -1.3677 C.3     1  UNL1        0.0937
     54 N          57.7161   94.5581   -1.4827 N.3     1  UNL1       -0.2670
     55 C          56.3635   95.1434   -1.7618 C.3     1  UNL1        0.1047
     56 C          55.1672   94.2458   -1.8768 C.3     1  UNL1        0.1595
     57 O          55.3236   92.7631   -1.7128 O.3     1  UNL1       -0.3508
     58 C          56.6762   92.1778   -1.4338 C.3     1  UNL1        0.1595
     59 C          57.8725   93.0754   -1.3187 C.3     1  UNL1        0.1047
     60 C          62.6725   80.5103   10.1243 C.3     1  UNL1        0.1177
     61 C          63.0794   79.0702   10.0209 C.ar    1  UNL1       -0.0025
     62 C          64.0681   78.6434    8.9768 C.ar    1  UNL1       -0.0026
     63 C          64.4750   77.2033    8.8733 C.ar    1  UNL1       -0.0003
     64 C          63.8933   76.1901    9.8140 C.ar    1  UNL1       -0.0000
     65 C          62.9045   76.6170   10.8582 C.ar    1  UNL1       -0.0003
     66 C          62.4976   78.0570   10.9616 C.ar    1  UNL1       -0.0026
@<TRIPOS>BOND
     1    18    19    2
     2    19    17    1
     3    17     1    1
     4     1     2    1
     5     2     3    1
     6     3     4    2
     7     3     5   am
     8     5     6    1
     9     6    20    1
    10    20    21    1
    11    21    22   ar
    12    22    23   ar
    13    23    24   ar
    14    24    25    1
    15    24    26   ar
    16    26    27   ar
    17     6     7    1
    18     7     8    2
    19     7     9   am
    20     9    29    1
    21    29    30    1
    22    30    31   ar
    23    31    32   ar
    24    32    33   ar
    25    33    34   ar
    26    34    35   ar
    27    35    40    1
    28    40    41    2
    29    40    42   am
    30    42    44    1
    31    44    45   ar
    32    45    46   ar
    33    46    47   ar
    34    47    50    1
    35    50    52    1
    36    52    53    1
    37    53    54    1
    38    54    55    1
    39    55    56    1
    40    56    57    1
    41    57    58    1
    42    58    59    1
    43    47    48   ar
    44    48    49   ar
    45    35    36   ar
    46    36    37   ar
    47    37    38    1
    48    37    39   ar
    49     9    10    1
    50    10    11    1
    51    11    12    1
    52    12    13   am
    53    13    14    2
    54    13    15   am
    55    15    60    1
    56    60    61    1
    57    61    62   ar
    58    62    63   ar
    59    63    64   ar
    60    64    65   ar
    61    65    66   ar
    62    12     1    1
    63    66    61   ar
    64    11     5    1
    65    27    21   ar
    66    39    30   ar
    67    39    34   ar
    68    49    44   ar
    69    59    54    1
    70    25    28    1
    71    42    43    1
    72    50    51    1
    73    15    16    1
@<TRIPOS>MOLECULE
*****
 66 73 0 0 0
SMALL
GASTEIGER

@<TRIPOS>ATOM
      1 N          64.5696   83.1343   13.2588 N.3     1  UNL1       -0.1862
      2 C          65.2112   84.0128   14.2915 C.3     1  UNL1        0.1775
      3 C          64.8018   85.4508   14.4119 C.2     1  UNL1        0.2452
      4 O          65.4434   86.3294   15.4447 O.2     1  UNL1       -0.2732
      5 N          63.7508   86.0103   13.4996 N.am    1  UNL1       -0.2541
      6 C          63.3414   87.4484   13.6200 C.3     1  UNL1        0.1577
      7 C          62.2904   88.0079   12.7077 C.2     1  UNL1        0.2445
      8 O          61.8809   89.4459   12.8281 O.2     1  UNL1       -0.2731
      9 N          61.6487   87.1293   11.6749 N.am    1  UNL1       -0.2705
     10 C          62.0581   85.6913   11.5545 C.3     1  UNL1        0.1359
     11 C          63.1092   85.1318   12.4669 C.3     1  UNL1        0.1908
     12 N          63.5186   83.6938   12.3465 N.am    1  UNL1       -0.1863
     13 C          62.8769   82.8153   11.3137 C.2     1  UNL1        0.3191
     14 O          61.8259   83.3748   10.4014 O.2     1  UNL1       -0.2512
     15 N          63.2864   81.3773   11.1933 N.am    1  UNL1       -0.2836
     16 H          63.9762   81.0101   11.7921 H       1  UNL1        0.1513
     17 C          64.9790   81.6963   13.1383 C.3     1  UNL1        0.1188
     18 C          62.8214   80.6661   14.1549 C.2     1  UNL1       -0.0034
     19 C          64.3116   80.6531   13.9847 C.2     1  UNL1       -0.0071
     20 C          63.9829   88.3269   14.6527 C.3     1  UNL1        0.0556
     21 C          64.5703   89.6480   14.2533 C.ar    1  UNL1       -0.0198
     22 C          65.6321   90.2837   15.1008 C.ar    1  UNL1       -0.0011
     23 C          66.2196   91.6048   14.7014 C.ar    1  UNL1        0.0363
     24 C          65.7452   92.2903   13.4544 C.ar    1  UNL1        0.1337
     25 O          66.3326   93.6114   13.0550 O.3     1  UNL1       -0.5055
     26 C          64.6833   91.6546   12.6067 C.ar    1  UNL1        0.0363
     27 C          64.0959   90.3334   13.0062 C.ar    1  UNL1       -0.0011
     28 H          66.9959   94.0085   13.5844 H       1  UNL1        0.2922
     29 C          60.5977   87.6888   10.7626 C.3     1  UNL1        0.1217
     30 C          60.9280   88.8331    9.8507 C.ar    1  UNL1        0.0135
     31 C          61.9463   89.8533   10.2660 C.ar    1  UNL1       -0.0012
     32 C          62.2766   90.9976    9.3542 C.ar    1  UNL1       -0.0002
     33 C          61.5887   91.1217    8.0270 C.ar    1  UNL1        0.0016
     34 C          60.5704   90.1015    7.6118 C.ar    1  UNL1        0.0214
     35 C          59.7357   89.9631    6.3732 C.ar    1  UNL1        0.0722
     36 C          58.8895   88.7333    6.5196 C.ar    1  UNL1        0.0805
     37 N          59.2012   88.1117    7.8486 N.ar    1  UNL1       -0.3241
     38 C          58.5827   86.8635    8.4050 C.3     1  UNL1        0.1305
     39 C          60.2401   88.9573    8.5236 C.ar    1  UNL1        0.0577
     40 C          59.7454   90.8916    5.1950 C.2     1  UNL1        0.2510
     41 O          58.4543   91.4298    4.6536 O.2     1  UNL1       -0.2698
     42 N          61.0464   91.2818    4.5584 N.am    1  UNL1       -0.2791
     43 H          61.8938   90.9285    4.9138 H       1  UNL1        0.1552
     44 C          61.0562   92.2102    3.3803 C.ar    1  UNL1        0.0701
     45 C          62.2891   92.3365    2.5354 C.ar    1  UNL1        0.0191
     46 C          62.2991   93.2649    1.3573 C.ar    1  UNL1        0.0354
     47 C          61.0761   94.0670    1.0241 C.ar    1  UNL1        0.1286
     48 N          59.8432   93.9406    1.8691 N.ar    1  UNL1       -0.2281
     49 C          59.8332   93.0123    3.0472 C.ar    1  UNL1        0.1149
     50 N          61.0859   94.9954   -0.1540 N.pl3   1  UNL1       -0.3169
     51 H          61.0689   95.9696   -0.0131 H       1  UNL1        0.1482
     52 C          61.1217   94.4394   -1.5467 C.3     1  UNL1        0.1057
     53 C          62.3938   93.8598   -2.0905 C.3     1  UNL1        0.0937
     54 N          63.5387   94.7625   -2.4433 N.3     1  UNL1       -0.2670
     55 C          64.2743   95.4982   -1.3628 C.3     1  UNL1        0.1047
     56 C          65.4192   96.4009   -1.7157 C.3     1  UNL1        0.1595
     57 O          65.8283   96.5679   -3.1491 O.3     1  UNL1       -0.3508
     58 C          65.0926   95.8322   -4.2297 C.3     1  UNL1        0.1595
     59 C          63.9478   94.9295   -3.8767 C.3     1  UNL1        0.1047
     60 C          62.6448   80.4988   10.1606 C.3     1  UNL1        0.1177
     61 C          63.0712   79.0672   10.0241 C.ar    1  UNL1       -0.0025
     62 C          64.0649   78.6778    8.9700 C.ar    1  UNL1       -0.0026
     63 C          64.4913   77.2462    8.8335 C.ar    1  UNL1       -0.0003
     64 C          63.9242   76.2039    9.7511 C.ar    1  UNL1       -0.0000
     65 C          62.9305   76.5933   10.8053 C.ar    1  UNL1       -0.0003
     66 C          62.5041   78.0249   10.9418 C.ar    1  UNL1       -0.0026
@<TRIPOS>BOND
     1    18    19    2
     2    19    17    1
     3    17     1    1
     4     1     2    1
     5     2     3    1
     6     3     4    2
     7     3     5   am
     8     5     6    1
     9     6    20    1
    10    20    21    1
    11    21    22   ar
    12    22    23   ar
    13    23    24   ar
    14    24    25    1
    15    24    26   ar
    16    26    27   ar
    17     6     7    1
    18     7     8    2
    19     7     9   am
    20     9    29    1
    21    29    30    1
    22    30    31   ar
    23    31    32   ar
    24    32    33   ar
    25    33    34   ar
    26    34    35   ar
    27    35    40    1
    28    40    41    2
    29    40    42   am
    30    42    44    1
    31    44    45   ar
    32    45    46   ar
    33    46    47   ar
    34    47    50    1
    35    50    52    1
    36    52    53    1
    37    53    54    1
    38    54    55    1
    39    55    56    1
    40    56    57    1
    41    57    58    1
    42    58    59    1
    43    47    48   ar
    44    48    49   ar
    45    35    36   ar
    46    36    37   ar
    47    37    38    1
    48    37    39   ar
    49     9    10    1
    50    10    11    1
    51    11    12    1
    52    12    13   am
    53    13    14    2
    54    13    15   am
    55    15    60    1
    56    60    61    1
    57    61    62   ar
    58    62    63   ar
    59    63    64   ar
    60    64    65   ar
    61    65    66   ar
    62    12     1    1
    63    66    61   ar
    64    11     5    1
    65    27    21   ar
    66    39    30   ar
    67    39    34   ar
    68    49    44   ar
    69    59    54    1
    70    25    28    1
    71    42    43    1
    72    50    51    1
    73    15    16    1
