@<TRIPOS>MOLECULE
*****
 36 40 0 0 0
SMALL
GASTEIGER

@<TRIPOS>ATOM
      1 O          62.4018   89.3804   15.7658 O.2     1  UNL1       -0.2744
      2 C          63.7695   89.5123   15.1641 C.2     1  UNL1        0.2320
      3 N          64.5577   88.2842   14.8168 N.am    1  UNL1       -0.2639
      4 H          65.4553   88.3708   14.4219 H       1  UNL1        0.1567
      5 C          63.9783   86.9244   15.0712 C.ar    1  UNL1        0.1655
      6 N          63.7677   85.8497   14.0461 N.ar    1  UNL1       -0.2239
      7 C          63.1670   84.6614   14.7368 C.ar    1  UNL1        0.0913
      8 C          63.0063   85.0016   16.1888 C.ar    1  UNL1        0.0573
      9 S          63.5077   86.4001   16.3956 S.2     1  UNL1       -0.0508
     10 C          62.7927   83.3613   14.0891 C.ar    1  UNL1        0.0403
     11 C          61.9480   82.2828   14.7003 C.ar    1  UNL1        0.1021
     12 N          61.8306   81.1663   13.7055 N.ar    1  UNL1       -0.2269
     13 C          62.6028   81.5547   12.4795 C.ar    1  UNL1        0.1406
     14 N          62.8412   80.8484   11.1780 N.ar    1  UNL1       -0.3374
     15 C          63.6743   81.4986   10.1135 C.ar    1  UNL1        0.0735
     16 C          64.2689   82.8552   10.3506 C.ar    1  UNL1        0.0186
     17 C          64.0304   83.5615   11.6522 C.ar    1  UNL1        0.0046
     18 C          63.1973   82.9113   12.7166 C.ar    1  UNL1        0.0370
     19 H          62.4510   79.9580   11.0223 H       1  UNL1        0.1674
     20 C          64.3489   90.8723   14.9096 C.3     1  UNL1        0.1118
     21 C          64.5358   91.3565   13.5023 C.ar    1  UNL1       -0.0101
     22 C          65.6453   92.3131   13.1795 C.ar    1  UNL1       -0.0036
     23 C          65.8322   92.7974   11.7721 C.ar    1  UNL1        0.0028
     24 C          64.9096   92.3252   10.6877 C.ar    1  UNL1        0.0369
     25 C          63.8002   91.3687   11.0106 C.ar    1  UNL1        0.1383
     26 C          63.6133   90.8844   12.4178 C.ar    1  UNL1        0.0331
     27 O          62.8777   90.8965    9.9262 O.3     1  UNL1       -0.4740
     28 C          61.7814   89.9236   10.2450 C.3     1  UNL1        0.2226
     29 C          62.0519   88.4488   10.2041 C.3     1  UNL1        0.1201
     30 N          61.2797   87.5704    9.2649 N.3     1  UNL1       -0.2672
     31 C          59.8437   87.8783    8.9597 C.3     1  UNL1        0.0895
     32 C          59.0716   86.9999    8.0205 C.3     1  UNL1        0.0862
     33 N          59.7354   85.8135    7.3865 N.3     1  UNL1       -0.2951
     34 C          61.1714   85.5056    7.6917 C.3     1  UNL1        0.0862
     35 C          61.9435   86.3841    8.6309 C.3     1  UNL1        0.0895
     36 H          59.6704   85.9444    6.3770 H       1  UNL1        0.1233
@<TRIPOS>BOND
     1     1     2    2
     2     2    20    1
     3    20    21    1
     4    21    22   ar
     5    22    23   ar
     6    23    24   ar
     7    24    25   ar
     8    25    27    1
     9    27    28    1
    10    28    29    1
    11    29    30    1
    12    30    31    1
    13    31    32    1
    14    32    33    1
    15    33    34    1
    16    34    35    1
    17    25    26   ar
    18     2     3   am
    19     3     5    1
    20     5     6   ar
    21     6     7   ar
    22     7    10    1
    23    10    11   ar
    24    11    12   ar
    25    12    13   ar
    26    13    14   ar
    27    14    15   ar
    28    15    16   ar
    29    16    17   ar
    30    17    18   ar
    31     7     8   ar
    32     8     9   ar
    33    26    21   ar
    34     9     5   ar
    35    35    30    1
    36    18    10   ar
    37    18    13    1
    38    33    36    1
    39     3     4    1
    40    14    19    1
@<TRIPOS>MOLECULE
*****
 36 40 0 0 0
SMALL
GASTEIGER

@<TRIPOS>ATOM
      1 O          62.6627   87.2413    9.1401 O.2     1  UNL1       -0.2744
      2 C          62.1326   86.9281   10.5079 C.2     1  UNL1        0.2320
      3 N          62.1483   87.9798   11.5773 N.am    1  UNL1       -0.2639
      4 H          61.8004   87.7742   12.4750 H       1  UNL1        0.1567
      5 C          62.6939   89.3447   11.2789 C.ar    1  UNL1        0.1655
      6 N          63.7808   90.0454   12.0390 N.ar    1  UNL1       -0.2239
      7 C          64.0072   91.3824   11.3979 C.ar    1  UNL1        0.0913
      8 C          63.0602   91.5082   10.2414 C.ar    1  UNL1        0.0573
      9 S          62.2486   90.2489   10.1679 S.2     1  UNL1       -0.0508
     10 C          65.0053   92.4128   11.8362 C.ar    1  UNL1        0.0403
     11 C          65.5284   93.5444   11.0021 C.ar    1  UNL1        0.1021
     12 N          66.5019   94.3234   11.8360 N.ar    1  UNL1       -0.2269
     13 C          66.5805   93.6732   13.1855 C.ar    1  UNL1        0.1406
     14 N          67.3748   94.0039   14.4142 N.ar    1  UNL1       -0.3374
     15 C          67.2441   93.1537   15.6430 C.ar    1  UNL1        0.0735
     16 C          66.3191   91.9728   15.6431 C.ar    1  UNL1        0.0186
     17 C          65.5248   91.6421   14.4144 C.ar    1  UNL1        0.0046
     18 C          65.6555   92.4923   13.1856 C.ar    1  UNL1        0.0370
     19 H          67.9818   94.7789   14.4141 H       1  UNL1        0.1674
     20 C          61.5869   85.5631   10.8063 C.3     1  UNL1        0.1118
     21 C          62.5203   84.4422   11.1559 C.ar    1  UNL1       -0.0101
     22 C          63.3387   83.7857   10.0838 C.ar    1  UNL1       -0.0036
     23 C          64.2722   82.6647   10.4334 C.ar    1  UNL1        0.0028
     24 C          64.3873   82.2003   11.8550 C.ar    1  UNL1        0.0369
     25 C          63.5689   82.8567   12.9271 C.ar    1  UNL1        0.1383
     26 C          62.6354   83.9776   12.5776 C.ar    1  UNL1        0.0331
     27 O          63.6839   82.3923   14.3487 O.3     1  UNL1       -0.4740
     28 C          63.9273   83.3865   15.4452 C.3     1  UNL1        0.2226
     29 C          64.6809   84.6512   15.1573 C.3     1  UNL1        0.1201
     30 N          64.1357   85.9704   15.6180 N.3     1  UNL1       -0.2672
     31 C          64.4173   87.2150   14.8295 C.3     1  UNL1        0.0895
     32 C          63.8721   88.5342   15.2903 C.3     1  UNL1        0.0862
     33 N          63.0453   88.6089   16.5396 N.3     1  UNL1       -0.2951
     34 C          62.7637   87.3644   17.3282 C.3     1  UNL1        0.0862
     35 C          63.3089   86.0451   16.8674 C.3     1  UNL1        0.0895
     36 H          62.1416   88.9986   16.2717 H       1  UNL1        0.1233
@<TRIPOS>BOND
     1     1     2    2
     2     2    20    1
     3    20    21    1
     4    21    22   ar
     5    22    23   ar
     6    23    24   ar
     7    24    25   ar
     8    25    27    1
     9    27    28    1
    10    28    29    1
    11    29    30    1
    12    30    31    1
    13    31    32    1
    14    32    33    1
    15    33    34    1
    16    34    35    1
    17    25    26   ar
    18     2     3   am
    19     3     5    1
    20     5     6   ar
    21     6     7   ar
    22     7    10    1
    23    10    11   ar
    24    11    12   ar
    25    12    13   ar
    26    13    14   ar
    27    14    15   ar
    28    15    16   ar
    29    16    17   ar
    30    17    18   ar
    31     7     8   ar
    32     8     9   ar
    33    26    21   ar
    34     9     5   ar
    35    35    30    1
    36    18    10   ar
    37    18    13    1
    38    33    36    1
    39     3     4    1
    40    14    19    1
@<TRIPOS>MOLECULE
*****
 36 40 0 0 0
SMALL
GASTEIGER

@<TRIPOS>ATOM
      1 O          65.5880   85.6232   14.7427 O.2     1  UNL1       -0.2744
      2 C          64.3004   85.0108   15.2084 C.2     1  UNL1        0.2320
      3 N          63.2094   85.8833   15.7548 N.am    1  UNL1       -0.2639
      4 H          62.3643   85.4814   16.0605 H       1  UNL1        0.1567
      5 C          63.4061   87.3681   15.8355 C.ar    1  UNL1        0.1655
      6 N          64.1309   88.2173   14.8337 N.ar    1  UNL1       -0.2239
      7 C          64.0853   89.6385   15.3112 C.ar    1  UNL1        0.0913
      8 C          63.3323   89.6678   16.6082 C.ar    1  UNL1        0.0573
      9 S          62.9125   88.2646   16.9322 S.2     1  UNL1       -0.0508
     10 C          64.6870   90.8226   14.6142 C.ar    1  UNL1        0.0403
     11 C          65.6146   91.8292   15.2276 C.ar    1  UNL1        0.1021
     12 N          65.9677   92.8366   14.1738 N.ar    1  UNL1       -0.2269
     13 C          65.2583   92.4527   12.9092 C.ar    1  UNL1        0.1406
     14 N          65.2308   93.0757   11.5450 N.ar    1  UNL1       -0.3374
     15 C          64.4118   92.4539   10.4529 C.ar    1  UNL1        0.0735
     16 C          63.6203   91.2091   10.7251 C.ar    1  UNL1        0.0186
     17 C          63.6478   90.5861   12.0893 C.ar    1  UNL1        0.0046
     18 C          64.4668   91.2079   13.1813 C.ar    1  UNL1        0.0370
     19 H          65.7502   93.8927   11.3664 H       1  UNL1        0.1674
     20 C          64.1036   83.5260   15.1277 C.3     1  UNL1        0.1118
     21 C          63.7282   82.8890   13.8226 C.ar    1  UNL1       -0.0101
     22 C          62.9610   81.6000   13.8105 C.ar    1  UNL1       -0.0036
     23 C          62.5855   80.9629   12.5054 C.ar    1  UNL1        0.0028
     24 C          62.9772   81.6149   11.2125 C.ar    1  UNL1        0.0369
     25 C          63.7442   82.9039   11.2247 C.ar    1  UNL1        0.1383
     26 C          64.1197   83.5409   12.5297 C.ar    1  UNL1        0.0331
     27 O          64.1358   83.5558    9.9318 O.3     1  UNL1       -0.4740
     28 C          63.2547   84.6071    9.3248 C.3     1  UNL1        0.2226
     29 C          62.3657   85.4384   10.2016 C.3     1  UNL1        0.1201
     30 N          61.5222   86.5235    9.6006 N.3     1  UNL1       -0.2672
     31 C          60.4783   86.1829    8.5788 C.3     1  UNL1        0.0895
     32 C          59.6349   87.2681    7.9779 C.3     1  UNL1        0.0862
     33 N          59.8354   88.6938    8.3989 N.3     1  UNL1       -0.2951
     34 C          60.8794   89.0343    9.4207 C.3     1  UNL1        0.0862
     35 C          61.7228   87.9492   10.0216 C.3     1  UNL1        0.0895
     36 H          58.9429   89.0196    8.7699 H       1  UNL1        0.1233
@<TRIPOS>BOND
     1     1     2    2
     2     2    20    1
     3    20    21    1
     4    21    22   ar
     5    22    23   ar
     6    23    24   ar
     7    24    25   ar
     8    25    27    1
     9    27    28    1
    10    28    29    1
    11    29    30    1
    12    30    31    1
    13    31    32    1
    14    32    33    1
    15    33    34    1
    16    34    35    1
    17    25    26   ar
    18     2     3   am
    19     3     5    1
    20     5     6   ar
    21     6     7   ar
    22     7    10    1
    23    10    11   ar
    24    11    12   ar
    25    12    13   ar
    26    13    14   ar
    27    14    15   ar
    28    15    16   ar
    29    16    17   ar
    30    17    18   ar
    31     7     8   ar
    32     8     9   ar
    33    26    21   ar
    34     9     5   ar
    35    35    30    1
    36    18    10   ar
    37    18    13    1
    38    33    36    1
    39     3     4    1
    40    14    19    1
@<TRIPOS>MOLECULE
*****
 36 40 0 0 0
SMALL
GASTEIGER

@<TRIPOS>ATOM
      1 O          63.1159   85.5884   13.5396 O.2     1  UNL1       -0.2744
      2 C          63.2752   84.9684   14.8961 C.2     1  UNL1        0.2320
      3 N          63.5016   85.8387   16.0966 N.am    1  UNL1       -0.2639
      4 H          63.6062   85.4317   16.9870 H       1  UNL1        0.1567
      5 C          63.5687   87.3289   15.9407 C.ar    1  UNL1        0.1655
      6 N          64.2056   88.0685   14.8016 N.ar    1  UNL1       -0.2239
      7 C          64.0413   89.5380   15.0533 C.ar    1  UNL1        0.0913
      8 C          63.3028   89.7068   16.3480 C.ar    1  UNL1        0.0573
      9 S          63.0108   88.3415   16.8964 S.2     1  UNL1       -0.0508
     10 C          64.5296   90.6446   14.1662 C.ar    1  UNL1        0.0403
     11 C          64.0825   90.9089   12.7590 C.ar    1  UNL1        0.1021
     12 N          64.8274   92.1088   12.2536 N.ar    1  UNL1       -0.2269
     13 C          65.7349   92.5860   13.3484 C.ar    1  UNL1        0.1406
     14 N          66.7050   93.7277   13.4217 N.ar    1  UNL1       -0.3374
     15 C          67.4911   93.9644   14.6771 C.ar    1  UNL1        0.0735
     16 C          67.3071   93.0595   15.8591 C.ar    1  UNL1        0.0186
     17 C          66.3369   91.9178   15.7858 C.ar    1  UNL1        0.0046
     18 C          65.5508   91.6811   14.5305 C.ar    1  UNL1        0.0370
     19 H          66.8258   94.3216   12.6459 H       1  UNL1        0.1674
     20 C          63.2081   83.4780   15.0521 C.3     1  UNL1        0.1118
     21 C          63.1092   82.6007   13.8395 C.ar    1  UNL1       -0.0101
     22 C          62.6830   81.1695   13.9820 C.ar    1  UNL1       -0.0036
     23 C          62.5841   80.2921   12.7693 C.ar    1  UNL1        0.0028
     24 C          62.9114   80.8459   11.4142 C.ar    1  UNL1        0.0369
     25 C          63.3376   82.2770   11.2718 C.ar    1  UNL1        0.1383
     26 C          63.4365   83.1544   12.4843 C.ar    1  UNL1        0.0331
     27 O          63.6649   82.8308    9.9167 O.3     1  UNL1       -0.4740
     28 C          63.6420   84.3128    9.6866 C.3     1  UNL1        0.2226
     29 C          63.0262   84.8684    8.4367 C.3     1  UNL1        0.1201
     30 N          61.9288   85.8866    8.5299 N.3     1  UNL1       -0.2672
     31 C          62.0780   87.0691    9.4406 C.3     1  UNL1        0.0895
     32 C          60.9805   88.0873    9.5337 C.3     1  UNL1        0.0862
     33 N          59.7338   87.9231    8.7161 N.3     1  UNL1       -0.2951
     34 C          59.5845   86.7406    7.8053 C.3     1  UNL1        0.0862
     35 C          60.6820   85.7224    7.7122 C.3     1  UNL1        0.0895
     36 H          59.6522   88.7560    8.1330 H       1  UNL1        0.1233
@<TRIPOS>BOND
     1     1     2    2
     2     2    20    1
     3    20    21    1
     4    21    22   ar
     5    22    23   ar
     6    23    24   ar
     7    24    25   ar
     8    25    27    1
     9    27    28    1
    10    28    29    1
    11    29    30    1
    12    30    31    1
    13    31    32    1
    14    32    33    1
    15    33    34    1
    16    34    35    1
    17    25    26   ar
    18     2     3   am
    19     3     5    1
    20     5     6   ar
    21     6     7   ar
    22     7    10    1
    23    10    11   ar
    24    11    12   ar
    25    12    13   ar
    26    13    14   ar
    27    14    15   ar
    28    15    16   ar
    29    16    17   ar
    30    17    18   ar
    31     7     8   ar
    32     8     9   ar
    33    26    21   ar
    34     9     5   ar
    35    35    30    1
    36    18    10   ar
    37    18    13    1
    38    33    36    1
    39     3     4    1
    40    14    19    1
@<TRIPOS>MOLECULE
*****
 36 40 0 0 0
SMALL
GASTEIGER

@<TRIPOS>ATOM
      1 O          60.9201   89.8706   11.4008 O.2     1  UNL1       -0.2744
      2 C          61.2441   88.4129   11.2589 C.2     1  UNL1        0.2320
      3 N          62.4589   87.8457   11.9315 N.am    1  UNL1       -0.2639
      4 H          62.6716   86.8890   11.8384 H       1  UNL1        0.1567
      5 C          63.3497   88.7361   12.7460 C.ar    1  UNL1        0.1655
      6 N          63.8037   90.1145   12.3665 N.ar    1  UNL1       -0.2239
      7 C          64.6775   90.6348   13.4689 C.ar    1  UNL1        0.0913
      8 C          64.7637   89.5781   14.5300 C.ar    1  UNL1        0.0573
      9 S          63.9431   88.4047   14.0832 S.2     1  UNL1       -0.0508
     10 C          65.3476   91.9764   13.5043 C.ar    1  UNL1        0.0403
     11 C          65.8467   92.6806   14.7310 C.ar    1  UNL1        0.1021
     12 N          66.4438   93.9887   14.3039 N.ar    1  UNL1       -0.2269
     13 C          66.3137   94.0929   12.8132 C.ar    1  UNL1        0.1406
     14 N          66.7246   95.1596   11.8420 N.ar    1  UNL1       -0.3374
     15 C          66.4581   94.9826   10.3766 C.ar    1  UNL1        0.0735
     16 C          65.7806   93.7389    9.8823 C.ar    1  UNL1        0.0186
     17 C          65.3697   92.6722   10.8535 C.ar    1  UNL1        0.0046
     18 C          65.6362   92.8492   12.3190 C.ar    1  UNL1        0.0370
     19 H          67.1693   95.9759   12.1664 H       1  UNL1        0.1674
     20 C          60.3533   87.5224   10.4443 C.3     1  UNL1        0.1118
     21 C          60.9452   86.6186    9.4038 C.ar    1  UNL1       -0.0101
     22 C          60.2949   86.4980    8.0575 C.ar    1  UNL1       -0.0036
     23 C          60.8869   85.5941    7.0169 C.ar    1  UNL1        0.0028
     24 C          62.1292   84.8110    7.3227 C.ar    1  UNL1        0.0369
     25 C          62.7794   84.9317    8.6690 C.ar    1  UNL1        0.1383
     26 C          62.1875   85.8355    9.7096 C.ar    1  UNL1        0.0331
     27 O          64.0217   84.1486    8.9748 O.3     1  UNL1       -0.4740
     28 C          64.2236   83.5663   10.3424 C.3     1  UNL1        0.2226
     29 C          63.6933   82.2000   10.6617 C.3     1  UNL1        0.1201
     30 N          63.1162   81.9173   12.0170 N.3     1  UNL1       -0.2672
     31 C          62.7350   80.5160   12.3926 C.3     1  UNL1        0.0895
     32 C          62.1580   80.2334   13.7480 C.3     1  UNL1        0.0862
     33 N          61.9621   81.3522   14.7278 N.3     1  UNL1       -0.2951
     34 C          62.3433   82.7535   14.3523 C.3     1  UNL1        0.0862
     35 C          62.9204   83.0360   12.9969 C.3     1  UNL1        0.0895
     36 H          62.5020   81.1130   15.5595 H       1  UNL1        0.1233
@<TRIPOS>BOND
     1     1     2    2
     2     2    20    1
     3    20    21    1
     4    21    22   ar
     5    22    23   ar
     6    23    24   ar
     7    24    25   ar
     8    25    27    1
     9    27    28    1
    10    28    29    1
    11    29    30    1
    12    30    31    1
    13    31    32    1
    14    32    33    1
    15    33    34    1
    16    34    35    1
    17    25    26   ar
    18     2     3   am
    19     3     5    1
    20     5     6   ar
    21     6     7   ar
    22     7    10    1
    23    10    11   ar
    24    11    12   ar
    25    12    13   ar
    26    13    14   ar
    27    14    15   ar
    28    15    16   ar
    29    16    17   ar
    30    17    18   ar
    31     7     8   ar
    32     8     9   ar
    33    26    21   ar
    34     9     5   ar
    35    35    30    1
    36    18    10   ar
    37    18    13    1
    38    33    36    1
    39     3     4    1
    40    14    19    1
@<TRIPOS>MOLECULE
*****
 36 40 0 0 0
SMALL
GASTEIGER

@<TRIPOS>ATOM
      1 O          63.0910   89.2330   13.6059 O.2     1  UNL1       -0.2744
      2 C          63.6274   89.8657   14.8557 C.2     1  UNL1        0.2320
      3 N          63.8213   89.0381   16.0916 N.am    1  UNL1       -0.2639
      4 H          64.1733   89.4534   16.9118 H       1  UNL1        0.1567
      5 C          63.4789   87.5779   16.0777 C.ar    1  UNL1        0.1655
      6 N          63.8715   86.5901   15.0192 N.ar    1  UNL1       -0.2239
      7 C          63.3190   85.2507   15.4072 C.ar    1  UNL1        0.0913
      8 C          62.5849   85.4105   16.7055 C.ar    1  UNL1        0.0573
      9 S          62.6837   86.8487   17.1199 S.2     1  UNL1       -0.0508
     10 C          63.4734   83.9753   14.6329 C.ar    1  UNL1        0.0403
     11 C          63.7097   82.6134   15.2153 C.ar    1  UNL1        0.1021
     12 N          63.8010   81.6344   14.0825 N.ar    1  UNL1       -0.2269
     13 C          63.6212   82.3912   12.8000 C.ar    1  UNL1        0.1406
     14 N          63.6157   81.9499   11.3664 N.ar    1  UNL1       -0.3374
     15 C          63.4077   82.9554   10.2730 C.ar    1  UNL1        0.0735
     16 C          63.2052   84.4023   10.6132 C.ar    1  UNL1        0.0186
     17 C          63.2107   84.8436   12.0467 C.ar    1  UNL1        0.0046
     18 C          63.4187   83.8381   13.1402 C.ar    1  UNL1        0.0370
     19 H          63.7485   81.0003   11.1432 H       1  UNL1        0.1674
     20 C          63.9698   91.3260   14.8696 C.3     1  UNL1        0.1118
     21 C          65.4057   91.7597   14.8669 C.ar    1  UNL1       -0.0101
     22 C          66.0193   92.3297   16.1114 C.ar    1  UNL1       -0.0036
     23 C          67.4553   92.7634   16.1088 C.ar    1  UNL1        0.0028
     24 C          68.2776   92.6272   14.8616 C.ar    1  UNL1        0.0369
     25 C          67.6640   92.0573   13.6172 C.ar    1  UNL1        0.1383
     26 C          66.2281   91.6236   13.6198 C.ar    1  UNL1        0.0331
     27 O          68.4862   91.9211   12.3701 O.3     1  UNL1       -0.4740
     28 C          67.8116   91.8211   11.0341 C.3     1  UNL1        0.2226
     29 C          68.1585   92.7915    9.9441 C.3     1  UNL1        0.1201
     30 N          67.5143   94.1458    9.9127 N.3     1  UNL1       -0.2672
     31 C          67.7819   95.0773    8.7679 C.3     1  UNL1        0.0895
     32 C          67.1376   96.4315    8.7366 C.3     1  UNL1        0.0862
     33 N          66.2258   96.8542    9.8501 N.3     1  UNL1       -0.2951
     34 C          65.9582   95.9227   10.9949 C.3     1  UNL1        0.0862
     35 C          66.6024   94.5685   11.0262 C.3     1  UNL1        0.0895
     36 H          65.3227   97.0671    9.4264 H       1  UNL1        0.1233
@<TRIPOS>BOND
     1     1     2    2
     2     2    20    1
     3    20    21    1
     4    21    22   ar
     5    22    23   ar
     6    23    24   ar
     7    24    25   ar
     8    25    27    1
     9    27    28    1
    10    28    29    1
    11    29    30    1
    12    30    31    1
    13    31    32    1
    14    32    33    1
    15    33    34    1
    16    34    35    1
    17    25    26   ar
    18     2     3   am
    19     3     5    1
    20     5     6   ar
    21     6     7   ar
    22     7    10    1
    23    10    11   ar
    24    11    12   ar
    25    12    13   ar
    26    13    14   ar
    27    14    15   ar
    28    15    16   ar
    29    16    17   ar
    30    17    18   ar
    31     7     8   ar
    32     8     9   ar
    33    26    21   ar
    34     9     5   ar
    35    35    30    1
    36    18    10   ar
    37    18    13    1
    38    33    36    1
    39     3     4    1
    40    14    19    1
@<TRIPOS>MOLECULE
*****
 36 40 0 0 0
SMALL
GASTEIGER

@<TRIPOS>ATOM
      1 O          60.3319   89.2734   12.2832 O.2     1  UNL1       -0.2744
      2 C          60.9712   88.4851   11.1787 C.2     1  UNL1        0.2320
      3 N          62.3702   88.8047   10.7419 N.am    1  UNL1       -0.2639
      4 H          62.7898   88.2873   10.0170 H       1  UNL1        0.1567
      5 C          63.1298   89.9123   11.4096 C.ar    1  UNL1        0.1655
      6 N          63.5953   89.9276   12.8355 N.ar    1  UNL1       -0.2239
      7 C          64.3105   91.2240   13.0758 C.ar    1  UNL1        0.0913
      8 C          64.2871   92.0100   11.7985 C.ar    1  UNL1        0.0573
      9 S          63.5574   91.1994   10.7687 S.2     1  UNL1       -0.0508
     10 C          64.9389   91.6581   14.3668 C.ar    1  UNL1        0.0403
     11 C          64.2287   91.8417   15.6752 C.ar    1  UNL1        0.1021
     12 N          65.2387   92.2820   16.6930 N.ar    1  UNL1       -0.2269
     13 C          66.5731   92.3705   16.0137 C.ar    1  UNL1        0.1406
     14 N          67.9330   92.7524   16.5185 N.ar    1  UNL1       -0.3374
     15 C          69.1076   92.7487   15.5857 C.ar    1  UNL1        0.0735
     16 C          68.9223   92.3631   14.1480 C.ar    1  UNL1        0.0186
     17 C          67.5624   91.9813   13.6431 C.ar    1  UNL1        0.0046
     18 C          66.3878   91.9850   14.5760 C.ar    1  UNL1        0.0370
     19 H          68.0546   93.0055   17.4622 H       1  UNL1        0.1674
     20 C          60.2116   87.3774   10.5110 C.3     1  UNL1        0.1118
     21 C          60.8854   86.5212    9.4800 C.ar    1  UNL1       -0.0101
     22 C          60.3014   86.4057    8.1031 C.ar    1  UNL1       -0.0036
     23 C          60.9752   85.5495    7.0721 C.ar    1  UNL1        0.0028
     24 C          62.2329   84.8088    7.4179 C.ar    1  UNL1        0.0369
     25 C          62.8168   84.9243    8.7948 C.ar    1  UNL1        0.1383
     26 C          62.1431   85.7804    9.8258 C.ar    1  UNL1        0.0331
     27 O          64.0745   84.1836    9.1407 O.3     1  UNL1       -0.4740
     28 C          64.0111   82.9635   10.0110 C.3     1  UNL1        0.2226
     29 C          64.4909   83.0291   11.4307 C.3     1  UNL1        0.1201
     30 N          63.6251   82.5092   12.5397 N.3     1  UNL1       -0.2672
     31 C          63.1724   81.0792   12.5304 C.3     1  UNL1        0.0895
     32 C          62.3065   80.5594   13.6395 C.3     1  UNL1        0.0862
     33 N          61.8934   81.4696   14.7579 N.3     1  UNL1       -0.2951
     34 C          62.3461   82.8997   14.7672 C.3     1  UNL1        0.0862
     35 C          63.2119   83.4195   13.6581 C.3     1  UNL1        0.0895
     36 H          62.2334   81.0475   15.6220 H       1  UNL1        0.1233
@<TRIPOS>BOND
     1     1     2    2
     2     2    20    1
     3    20    21    1
     4    21    22   ar
     5    22    23   ar
     6    23    24   ar
     7    24    25   ar
     8    25    27    1
     9    27    28    1
    10    28    29    1
    11    29    30    1
    12    30    31    1
    13    31    32    1
    14    32    33    1
    15    33    34    1
    16    34    35    1
    17    25    26   ar
    18     2     3   am
    19     3     5    1
    20     5     6   ar
    21     6     7   ar
    22     7    10    1
    23    10    11   ar
    24    11    12   ar
    25    12    13   ar
    26    13    14   ar
    27    14    15   ar
    28    15    16   ar
    29    16    17   ar
    30    17    18   ar
    31     7     8   ar
    32     8     9   ar
    33    26    21   ar
    34     9     5   ar
    35    35    30    1
    36    18    10   ar
    37    18    13    1
    38    33    36    1
    39     3     4    1
    40    14    19    1
@<TRIPOS>MOLECULE
*****
 36 40 0 0 0
SMALL
GASTEIGER

@<TRIPOS>ATOM
      1 O          62.1862   88.5321    9.6400 O.2     1  UNL1       -0.2744
      2 C          62.1146   87.4087   10.6314 C.2     1  UNL1        0.2320
      3 N          62.5686   87.6255   12.0445 N.am    1  UNL1       -0.2639
      4 H          62.5216   86.8882   12.6952 H       1  UNL1        0.1567
      5 C          63.0942   88.9655   12.4661 C.ar    1  UNL1        0.1655
      6 N          63.7852   89.2739   13.7613 N.ar    1  UNL1       -0.2239
      7 C          64.1392   90.7315   13.7624 C.ar    1  UNL1        0.0913
      8 C          63.6670   91.3241   12.4678 C.ar    1  UNL1        0.0573
      9 S          63.0212   90.2327   11.6667 S.2     1  UNL1       -0.0508
     10 C          64.8420   91.4674   14.8644 C.ar    1  UNL1        0.0403
     11 C          64.2443   91.8612   16.1826 C.ar    1  UNL1        0.1021
     12 N          65.2988   92.5759   16.9746 N.ar    1  UNL1       -0.2269
     13 C          66.5482   92.6237   16.1460 C.ar    1  UNL1        0.1406
     14 N          67.9064   93.2026   16.4104 N.ar    1  UNL1       -0.3374
     15 C          68.9823   93.0964   15.3707 C.ar    1  UNL1        0.0735
     16 C          68.7000   92.4113   14.0665 C.ar    1  UNL1        0.0186
     17 C          67.3418   91.8324   13.8020 C.ar    1  UNL1        0.0046
     18 C          66.2658   91.9386   14.8418 C.ar    1  UNL1        0.0370
     19 H          68.0917   93.6523   17.2664 H       1  UNL1        0.1674
     20 C          61.5890   86.0686   10.2097 C.3     1  UNL1        0.1118
     21 C          62.4296   84.8405   10.3970 C.ar    1  UNL1       -0.0101
     22 C          63.4127   84.4361    9.3386 C.ar    1  UNL1       -0.0036
     23 C          64.2534   83.2079    9.5258 C.ar    1  UNL1        0.0028
     24 C          64.1110   82.3842   10.7714 C.ar    1  UNL1        0.0369
     25 C          63.1279   82.7887   11.8296 C.ar    1  UNL1        0.1383
     26 C          62.2873   84.0168   11.6425 C.ar    1  UNL1        0.0331
     27 O          62.9855   81.9651   13.0752 O.3     1  UNL1       -0.4740
     28 C          62.1534   82.4694   14.2167 C.3     1  UNL1        0.2226
     29 C          62.8167   82.9551   15.4714 C.3     1  UNL1        0.1201
     30 N          63.1514   84.4088   15.6284 N.3     1  UNL1       -0.2672
     31 C          62.4387   85.2357   16.6571 C.3     1  UNL1        0.0895
     32 C          62.7734   86.6894   16.8141 C.3     1  UNL1        0.0862
     33 N          63.8208   87.3162   15.9422 N.3     1  UNL1       -0.2951
     34 C          64.5335   86.4893   14.9135 C.3     1  UNL1        0.0862
     35 C          64.1987   85.0356   14.7566 C.3     1  UNL1        0.0895
     36 H          64.5360   87.6920   16.5649 H       1  UNL1        0.1233
@<TRIPOS>BOND
     1     1     2    2
     2     2    20    1
     3    20    21    1
     4    21    22   ar
     5    22    23   ar
     6    23    24   ar
     7    24    25   ar
     8    25    27    1
     9    27    28    1
    10    28    29    1
    11    29    30    1
    12    30    31    1
    13    31    32    1
    14    32    33    1
    15    33    34    1
    16    34    35    1
    17    25    26   ar
    18     2     3   am
    19     3     5    1
    20     5     6   ar
    21     6     7   ar
    22     7    10    1
    23    10    11   ar
    24    11    12   ar
    25    12    13   ar
    26    13    14   ar
    27    14    15   ar
    28    15    16   ar
    29    16    17   ar
    30    17    18   ar
    31     7     8   ar
    32     8     9   ar
    33    26    21   ar
    34     9     5   ar
    35    35    30    1
    36    18    10   ar
    37    18    13    1
    38    33    36    1
    39     3     4    1
    40    14    19    1
@<TRIPOS>MOLECULE
*****
 36 40 0 0 0
SMALL
GASTEIGER

@<TRIPOS>ATOM
      1 O          63.2464   90.8468   13.0436 O.2     1  UNL1       -0.2744
      2 C          63.9923   90.3278   14.2370 C.2     1  UNL1        0.2320
      3 N          64.1507   88.8498   14.4379 N.am    1  UNL1       -0.2639
      4 H          64.6403   88.5092   15.2212 H       1  UNL1        0.1567
      5 C          63.5632   87.8908   13.4454 C.ar    1  UNL1        0.1655
      6 N          62.6385   88.2444   12.3186 N.ar    1  UNL1       -0.2239
      7 C          62.3011   86.9819   11.5822 C.ar    1  UNL1        0.0913
      8 C          63.0173   85.8480   12.2540 C.ar    1  UNL1        0.0573
      9 S          63.7973   86.4097   13.4055 S.2     1  UNL1       -0.0508
     10 C          61.4048   86.8725   10.3844 C.ar    1  UNL1        0.0403
     11 C          60.0580   87.5144   10.2294 C.ar    1  UNL1        0.1021
     12 N          59.5189   87.1406    8.8805 N.ar    1  UNL1       -0.2269
     13 C          60.5325   86.2677    8.2018 C.ar    1  UNL1        0.1406
     14 N          60.5447   85.6022    6.8576 N.ar    1  UNL1       -0.3374
     15 C          61.7224   84.7712    6.4428 C.ar    1  UNL1        0.0735
     16 C          62.8880   84.6055    7.3723 C.ar    1  UNL1        0.0186
     17 C          62.8758   85.2709    8.7165 C.ar    1  UNL1        0.0046
     18 C          61.6981   86.1020    9.1313 C.ar    1  UNL1        0.0370
     19 H          59.7796   85.7110    6.2475 H       1  UNL1        0.1674
     20 C          64.5798   91.2869   15.2295 C.3     1  UNL1        0.1118
     21 C          65.9950   91.7579   15.0702 C.ar    1  UNL1       -0.0101
     22 C          66.7166   92.3714   16.2334 C.ar    1  UNL1       -0.0036
     23 C          68.1319   92.8424   16.0741 C.ar    1  UNL1        0.0028
     24 C          68.8254   92.7000   14.7517 C.ar    1  UNL1        0.0369
     25 C          68.1037   92.0865   13.5886 C.ar    1  UNL1        0.1383
     26 C          66.6885   91.6155   13.7478 C.ar    1  UNL1        0.0331
     27 O          68.7972   91.9440   12.2662 O.3     1  UNL1       -0.4740
     28 C          67.9940   91.7331   11.0170 C.3     1  UNL1        0.2226
     29 C          68.1504   92.6715    9.8573 C.3     1  UNL1        0.1201
     30 N          67.5351   94.0385    9.9105 N.3     1  UNL1       -0.2672
     31 C          66.6050   94.3993   11.0306 C.3     1  UNL1        0.0895
     32 C          65.9898   95.7663   11.0837 C.3     1  UNL1        0.0862
     33 N          66.3048   96.7725   10.0167 N.3     1  UNL1       -0.2951
     34 C          67.2349   96.4117    8.8966 C.3     1  UNL1        0.0862
     35 C          67.8501   95.0447    8.8435 C.3     1  UNL1        0.0895
     36 H          66.7095   97.5826   10.4862 H       1  UNL1        0.1233
@<TRIPOS>BOND
     1     1     2    2
     2     2    20    1
     3    20    21    1
     4    21    22   ar
     5    22    23   ar
     6    23    24   ar
     7    24    25   ar
     8    25    27    1
     9    27    28    1
    10    28    29    1
    11    29    30    1
    12    30    31    1
    13    31    32    1
    14    32    33    1
    15    33    34    1
    16    34    35    1
    17    25    26   ar
    18     2     3   am
    19     3     5    1
    20     5     6   ar
    21     6     7   ar
    22     7    10    1
    23    10    11   ar
    24    11    12   ar
    25    12    13   ar
    26    13    14   ar
    27    14    15   ar
    28    15    16   ar
    29    16    17   ar
    30    17    18   ar
    31     7     8   ar
    32     8     9   ar
    33    26    21   ar
    34     9     5   ar
    35    35    30    1
    36    18    10   ar
    37    18    13    1
    38    33    36    1
    39     3     4    1
    40    14    19    1
