@<TRIPOS>MOLECULE
*****
 34 37 0 0 0
SMALL
GASTEIGER

@<TRIPOS>ATOM
      1 N          64.0760   91.2128   11.6746 N.ar    1  UNL1       -0.2796
      2 C          64.6461   91.3773   13.0523 C.ar    1  UNL1        0.3339
      3 O          65.3972   92.6259   13.4090 O.2     1  UNL1       -0.2462
      4 N          64.4652   90.2934   14.0733 N.ar    1  UNL1       -0.2455
      5 C          65.0354   90.4580   15.4510 C.3     1  UNL1        0.1383
      6 C          63.7142   89.0450   13.7167 C.ar    1  UNL1        0.2816
      7 O          63.5333   87.9611   14.7377 O.2     1  UNL1       -0.2652
      8 C          63.1440   88.8804   12.3390 C.ar    1  UNL1        0.1342
      9 C          63.3249   89.9643   11.3180 C.ar    1  UNL1        0.0871
     10 C          62.6554   89.5233   10.0503 C.ar    1  UNL1        0.0515
     11 C          62.0607   88.1669   10.2877 C.ar    1  UNL1        0.1142
     12 N          62.3627   87.7695   11.7023 N.ar    1  UNL1       -0.3068
     13 N          61.2979   87.3511    9.2865 N.pl3   1  UNL1       -0.2932
     14 C          59.8215   87.5569    9.1200 C.3     1  UNL1        0.0922
     15 C          59.0587   86.7410    8.1186 C.3     1  UNL1        0.0228
     16 C          59.7724   85.7193    7.2839 C.3     1  UNL1        0.0177
     17 C          61.2488   85.5134    7.4504 C.3     1  UNL1        0.0575
     18 C          62.6265   84.9572    7.2443 C.3     1  UNL1        0.0173
     19 N          60.9645   84.5044    6.3776 N.3     1  UNL1       -0.3219
     20 C          62.0115   86.3294    8.4517 C.3     1  UNL1        0.1062
     21 H          59.9711   84.5237    6.1473 H       1  UNL1        0.1188
     22 H          61.2185   83.5741    6.7099 H       1  UNL1        0.1188
     23 C          65.6116   92.9028   10.4354 C.3     1  UNL1        0.0266
     24 C          64.2569   92.2967   10.6537 C.3     1  UNL1        0.1106
     25 C          61.9549   86.4865   12.3638 C.3     1  UNL1        0.1348
     26 C          62.7830   85.2500   12.1766 C.ar    1  UNL1        0.0123
     27 C          63.2404   84.8543   10.8039 C.ar    1  UNL1        0.0279
     28 C          64.0685   83.6177   10.6167 C.ar    1  UNL1        0.1399
     29 F          64.5258   83.2221    9.2440 F       1  UNL1       -0.2042
     30 C          64.4393   82.7767   11.8022 C.ar    1  UNL1        0.0303
     31 C          63.9819   83.1724   13.1748 C.ar    1  UNL1        0.0123
     32 C          63.1538   84.4090   13.3621 C.ar    1  UNL1        0.0664
     33 C          62.6964   84.8046   14.7347 C.1     1  UNL1        0.1002
     34 N          62.2391   85.2002   16.1074 N.1     1  UNL1       -0.1908
@<TRIPOS>BOND
     1    23    24    1
     2    24     1    1
     3     1     2   ar
     4     2     3    2
     5     2     4   ar
     6     4     5    1
     7     4     6   ar
     8     6     7    2
     9     6     8   ar
    10     8     9   ar
    11     9    10   ar
    12    10    11   ar
    13    11    13    1
    14    13    14    1
    15    14    15    1
    16    15    16    1
    17    16    17    1
    18    17    18    1
    19    17    19    1
    20    17    20    1
    21    11    12   ar
    22    12    25    1
    23    25    26    1
    24    26    27   ar
    25    27    28   ar
    26    28    29    1
    27    28    30   ar
    28    30    31   ar
    29    31    32   ar
    30    32    33    1
    31    33    34    3
    32     9     1   ar
    33    20    13    1
    34    32    26   ar
    35    12     8   ar
    36    19    21    1
    37    19    22    1
@<TRIPOS>MOLECULE
*****
 34 37 0 0 0
SMALL
GASTEIGER

@<TRIPOS>ATOM
      1 N          65.8426   92.5456   13.8588 N.ar    1  UNL1       -0.2796
      2 C          65.8179   93.3459   12.5903 C.ar    1  UNL1        0.3339
      3 O          66.4796   94.6912   12.5393 O.2     1  UNL1       -0.2462
      4 N          65.1317   92.8010   11.3729 N.ar    1  UNL1       -0.2455
      5 C          65.1070   93.6013   10.1044 C.3     1  UNL1        0.1383
      6 C          64.4701   91.4558   11.4239 C.ar    1  UNL1        0.2816
      7 O          63.7838   90.9109   10.2065 O.2     1  UNL1       -0.2652
      8 C          64.4947   90.6555   12.6923 C.ar    1  UNL1        0.1342
      9 C          65.1810   91.2004   13.9097 C.ar    1  UNL1        0.0871
     10 C          65.0433   90.1907   15.0105 C.ar    1  UNL1        0.0515
     11 C          64.2719   89.0218   14.4733 C.ar    1  UNL1        0.1142
     12 N          63.9329   89.3090   13.0406 N.ar    1  UNL1       -0.3068
     13 N          63.9042   87.7830   15.2350 N.pl3   1  UNL1       -0.2932
     14 C          63.1305   87.8919   16.5155 C.3     1  UNL1        0.0922
     15 C          62.7628   86.6531   17.2772 C.3     1  UNL1        0.0228
     16 C          63.1687   85.3054   16.7585 C.3     1  UNL1        0.0177
     17 C          63.9423   85.1965   15.4780 C.3     1  UNL1        0.0575
     18 C          64.6769   84.5835   14.3228 C.3     1  UNL1        0.0173
     19 N          63.8297   83.7449   15.8385 N.3     1  UNL1       -0.3219
     20 C          64.3101   86.4354   14.7163 C.3     1  UNL1        0.1062
     21 H          63.3132   83.6508   16.7131 H       1  UNL1        0.1188
     22 H          64.7630   83.3490   15.9506 H       1  UNL1        0.1188
     23 C          67.8778   92.5686   15.4734 C.3     1  UNL1        0.0266
     24 C          66.5289   93.0906   15.0762 C.3     1  UNL1        0.1106
     25 C          63.1666   88.4079   12.1182 C.3     1  UNL1        0.1348
     26 C          61.9474   88.9207   11.4107 C.ar    1  UNL1        0.0123
     27 C          61.1572   90.0508   12.0011 C.ar    1  UNL1        0.0279
     28 C          59.9380   90.5635   11.2936 C.ar    1  UNL1        0.1399
     29 F          59.1479   91.6936   11.8840 F       1  UNL1       -0.2042
     30 C          59.5089   89.9461    9.9955 C.ar    1  UNL1        0.0303
     31 C          60.2990   88.8161    9.4051 C.ar    1  UNL1        0.0123
     32 C          61.5182   88.3033   10.1126 C.ar    1  UNL1        0.0664
     33 C          62.3083   87.1733    9.5222 C.1     1  UNL1        0.1002
     34 N          63.0985   86.0432    8.9318 N.1     1  UNL1       -0.1908
@<TRIPOS>BOND
     1    23    24    1
     2    24     1    1
     3     1     2   ar
     4     2     3    2
     5     2     4   ar
     6     4     5    1
     7     4     6   ar
     8     6     7    2
     9     6     8   ar
    10     8     9   ar
    11     9    10   ar
    12    10    11   ar
    13    11    13    1
    14    13    14    1
    15    14    15    1
    16    15    16    1
    17    16    17    1
    18    17    18    1
    19    17    19    1
    20    17    20    1
    21    11    12   ar
    22    12    25    1
    23    25    26    1
    24    26    27   ar
    25    27    28   ar
    26    28    29    1
    27    28    30   ar
    28    30    31   ar
    29    31    32   ar
    30    32    33    1
    31    33    34    3
    32     9     1   ar
    33    20    13    1
    34    32    26   ar
    35    12     8   ar
    36    19    21    1
    37    19    22    1
@<TRIPOS>MOLECULE
*****
 34 37 0 0 0
SMALL
GASTEIGER

@<TRIPOS>ATOM
      1 N          60.8113   87.3669    9.7297 N.ar    1  UNL1       -0.2796
      2 C          60.9441   88.8606    9.7681 C.ar    1  UNL1        0.3339
      3 O          60.1360   89.7097    8.8320 O.2     1  UNL1       -0.2462
      4 N          61.8848   89.5051   10.7424 N.ar    1  UNL1       -0.2455
      5 C          62.0177   90.9988   10.7808 C.3     1  UNL1        0.1383
      6 C          62.6928   88.6561   11.6785 C.ar    1  UNL1        0.2816
      7 O          63.6336   89.3007   12.6529 O.2     1  UNL1       -0.2652
      8 C          62.5601   87.1625   11.6402 C.ar    1  UNL1        0.1342
      9 C          61.6193   86.5179   10.6658 C.ar    1  UNL1        0.0871
     10 C          61.6993   85.0324   10.8576 C.ar    1  UNL1        0.0515
     11 C          62.6895   84.7588   11.9505 C.ar    1  UNL1        0.1142
     12 N          63.2215   86.0753   12.4342 N.ar    1  UNL1       -0.3068
     13 N          63.0794   83.4063   12.4688 N.pl3   1  UNL1       -0.2932
     14 C          64.4978   82.9350   12.3428 C.3     1  UNL1        0.0922
     15 C          64.8876   81.5825   12.8611 C.3     1  UNL1        0.0228
     16 C          63.8590   80.7012   13.5055 C.3     1  UNL1        0.0177
     17 C          62.4405   81.1724   13.6316 C.3     1  UNL1        0.0575
     18 C          60.9815   81.1741   13.9796 C.3     1  UNL1        0.0173
     19 N          62.3236   79.8205   14.2708 N.3     1  UNL1       -0.3219
     20 C          62.0508   82.5250   13.1132 C.3     1  UNL1        0.1062
     21 H          63.2337   79.3601   14.2613 H       1  UNL1        0.1188
     22 H          61.6515   79.2558   13.7514 H       1  UNL1        0.1188
     23 C          60.4119   85.9497    7.5892 C.3     1  UNL1        0.0266
     24 C          59.8704   86.7224    8.7552 C.3     1  UNL1        0.1106
     25 C          64.2367   86.2703   13.5211 C.3     1  UNL1        0.1348
     26 C          63.8422   86.9386   14.8047 C.ar    1  UNL1        0.0123
     27 C          63.8308   88.4357   14.8982 C.ar    1  UNL1        0.0279
     28 C          63.4363   89.1040   16.1818 C.ar    1  UNL1        0.1399
     29 F          63.4250   90.6011   16.2752 F       1  UNL1       -0.2042
     30 C          63.0532   88.2753   17.3720 C.ar    1  UNL1        0.0303
     31 C          63.0645   86.7783   17.2785 C.ar    1  UNL1        0.0123
     32 C          63.4590   86.1099   15.9949 C.ar    1  UNL1        0.0664
     33 C          63.4704   84.6129   15.9014 C.1     1  UNL1        0.1002
     34 N          63.4818   83.1159   15.8079 N.1     1  UNL1       -0.1908
@<TRIPOS>BOND
     1    23    24    1
     2    24     1    1
     3     1     2   ar
     4     2     3    2
     5     2     4   ar
     6     4     5    1
     7     4     6   ar
     8     6     7    2
     9     6     8   ar
    10     8     9   ar
    11     9    10   ar
    12    10    11   ar
    13    11    13    1
    14    13    14    1
    15    14    15    1
    16    15    16    1
    17    16    17    1
    18    17    18    1
    19    17    19    1
    20    17    20    1
    21    11    12   ar
    22    12    25    1
    23    25    26    1
    24    26    27   ar
    25    27    28   ar
    26    28    29    1
    27    28    30   ar
    28    30    31   ar
    29    31    32   ar
    30    32    33    1
    31    33    34    3
    32     9     1   ar
    33    20    13    1
    34    32    26   ar
    35    12     8   ar
    36    19    21    1
    37    19    22    1
@<TRIPOS>MOLECULE
*****
 34 37 0 0 0
SMALL
GASTEIGER

@<TRIPOS>ATOM
      1 N          60.6945   86.4729    8.1140 N.ar    1  UNL1       -0.2796
      2 C          59.9280   87.5564    7.4150 C.ar    1  UNL1        0.3339
      3 O          59.3607   87.3115    6.0480 O.2     1  UNL1       -0.2462
      4 N          59.7288   88.8846    8.0827 N.ar    1  UNL1       -0.2455
      5 C          58.9622   89.9681    7.3837 C.3     1  UNL1        0.1383
      6 C          60.2960   89.1295    9.4496 C.ar    1  UNL1        0.2816
      7 O          60.0968   90.4578   10.1174 O.2     1  UNL1       -0.2652
      8 C          61.0625   88.0461   10.1486 C.ar    1  UNL1        0.1342
      9 C          61.2618   86.7178    9.4808 C.ar    1  UNL1        0.0871
     10 C          62.0557   85.8468   10.4088 C.ar    1  UNL1        0.0515
     11 C          62.3471   86.6369   11.6501 C.ar    1  UNL1        0.1142
     12 N          61.7333   87.9961   11.4893 N.ar    1  UNL1       -0.3068
     13 N          63.1171   86.1527   12.8429 N.pl3   1  UNL1       -0.2932
     14 C          63.9797   87.1057   13.6160 C.3     1  UNL1        0.0922
     15 C          64.7497   86.6215   14.8088 C.3     1  UNL1        0.0228
     16 C          64.6572   85.1843   15.2284 C.3     1  UNL1        0.0177
     17 C          63.7947   84.2314   14.4552 C.3     1  UNL1        0.0575
     18 C          63.1179   82.9565   14.0471 C.3     1  UNL1        0.0173
     19 N          64.3296   83.3044   15.5062 N.3     1  UNL1       -0.3219
     20 C          63.0246   84.7156   13.2625 C.3     1  UNL1        0.1062
     21 H          64.9520   83.8195   16.1289 H       1  UNL1        0.1188
     22 H          64.8462   82.5465   15.0600 H       1  UNL1        0.1188
     23 C          62.1775   84.8513    6.7279 C.3     1  UNL1        0.0266
     24 C          60.8937   85.1446    7.4461 C.3     1  UNL1        0.1106
     25 C          61.7818   89.1097   12.4930 C.3     1  UNL1        0.1348
     26 C          62.8950   90.1139   12.4458 C.ar    1  UNL1        0.0123
     27 C          63.3194   90.7020   11.1328 C.ar    1  UNL1        0.0279
     28 C          64.4326   91.7062   11.0855 C.ar    1  UNL1        0.1399
     29 F          64.8570   92.2943    9.7725 F       1  UNL1       -0.2042
     30 C          65.1215   92.1224   12.3514 C.ar    1  UNL1        0.0303
     31 C          64.6972   91.5344   13.6644 C.ar    1  UNL1        0.0123
     32 C          63.5839   90.5301   13.7117 C.ar    1  UNL1        0.0664
     33 C          63.1596   89.9421   15.0246 C.1     1  UNL1        0.1002
     34 N          62.7352   89.3540   16.3377 N.1     1  UNL1       -0.1908
@<TRIPOS>BOND
     1    23    24    1
     2    24     1    1
     3     1     2   ar
     4     2     3    2
     5     2     4   ar
     6     4     5    1
     7     4     6   ar
     8     6     7    2
     9     6     8   ar
    10     8     9   ar
    11     9    10   ar
    12    10    11   ar
    13    11    13    1
    14    13    14    1
    15    14    15    1
    16    15    16    1
    17    16    17    1
    18    17    18    1
    19    17    19    1
    20    17    20    1
    21    11    12   ar
    22    12    25    1
    23    25    26    1
    24    26    27   ar
    25    27    28   ar
    26    28    29    1
    27    28    30   ar
    28    30    31   ar
    29    31    32   ar
    30    32    33    1
    31    33    34    3
    32     9     1   ar
    33    20    13    1
    34    32    26   ar
    35    12     8   ar
    36    19    21    1
    37    19    22    1
@<TRIPOS>MOLECULE
*****
 34 37 0 0 0
SMALL
GASTEIGER

@<TRIPOS>ATOM
      1 N          64.2996   91.7319   11.8153 N.ar    1  UNL1       -0.2796
      2 C          65.0896   91.5104   13.0710 C.ar    1  UNL1        0.3339
      3 O          66.0371   92.5669   13.5573 O.2     1  UNL1       -0.2462
      4 N          64.9323   90.2325   13.8405 N.ar    1  UNL1       -0.2455
      5 C          65.7223   90.0109   15.0962 C.3     1  UNL1        0.1383
      6 C          63.9849   89.1760   13.3543 C.ar    1  UNL1        0.2816
      7 O          63.8276   87.8981   14.1237 O.2     1  UNL1       -0.2652
      8 C          63.1949   89.3975   12.0986 C.ar    1  UNL1        0.1342
      9 C          63.3523   90.6755   11.3291 C.ar    1  UNL1        0.0871
     10 C          62.4469   90.6120   10.1348 C.ar    1  UNL1        0.0515
     11 C          61.7300   89.2948   10.1662 C.ar    1  UNL1        0.1142
     12 N          62.1923   88.5442   11.3798 N.ar    1  UNL1       -0.3068
     13 N          60.7269   88.8127    9.1605 N.pl3   1  UNL1       -0.2932
     14 C          60.0610   87.4813    9.3442 C.3     1  UNL1        0.0922
     15 C          59.0579   86.9993    8.3384 C.3     1  UNL1        0.0228
     16 C          58.7208   87.8486    7.1490 C.3     1  UNL1        0.0177
     17 C          59.3867   89.1801    6.9652 C.3     1  UNL1        0.0575
     18 C          59.7478   90.5038    6.3591 C.3     1  UNL1        0.0173
     19 N          58.5090   89.1578    5.7490 N.3     1  UNL1       -0.3219
     20 C          60.3898   89.6621    7.9710 C.3     1  UNL1        0.1062
     21 H          57.9758   88.2885    5.7304 H       1  UNL1        0.1188
     22 H          59.0875   89.2198    4.9111 H       1  UNL1        0.1188
     23 C          65.7717   93.3420   10.4044 C.3     1  UNL1        0.0266
     24 C          64.4570   93.0099   11.0458 C.3     1  UNL1        0.1106
     25 C          61.7326   87.1798   11.8008 C.3     1  UNL1        0.1348
     26 C          62.3490   85.9581   11.1865 C.ar    1  UNL1        0.0123
     27 C          62.5402   85.8809    9.7007 C.ar    1  UNL1        0.0279
     28 C          63.1565   84.6591    9.0863 C.ar    1  UNL1        0.1399
     29 F          63.3477   84.5819    7.6005 F       1  UNL1       -0.2042
     30 C          63.5817   83.5145    9.9577 C.ar    1  UNL1        0.0303
     31 C          63.3905   83.5918   11.4434 C.ar    1  UNL1        0.0123
     32 C          62.7742   84.8135   12.0579 C.ar    1  UNL1        0.0664
     33 C          62.5830   84.8908   13.5436 C.1     1  UNL1        0.1002
     34 N          62.3918   84.9680   15.0293 N.1     1  UNL1       -0.1908
@<TRIPOS>BOND
     1    23    24    1
     2    24     1    1
     3     1     2   ar
     4     2     3    2
     5     2     4   ar
     6     4     5    1
     7     4     6   ar
     8     6     7    2
     9     6     8   ar
    10     8     9   ar
    11     9    10   ar
    12    10    11   ar
    13    11    13    1
    14    13    14    1
    15    14    15    1
    16    15    16    1
    17    16    17    1
    18    17    18    1
    19    17    19    1
    20    17    20    1
    21    11    12   ar
    22    12    25    1
    23    25    26    1
    24    26    27   ar
    25    27    28   ar
    26    28    29    1
    27    28    30   ar
    28    30    31   ar
    29    31    32   ar
    30    32    33    1
    31    33    34    3
    32     9     1   ar
    33    20    13    1
    34    32    26   ar
    35    12     8   ar
    36    19    21    1
    37    19    22    1
@<TRIPOS>MOLECULE
*****
 34 37 0 0 0
SMALL
GASTEIGER

@<TRIPOS>ATOM
      1 N          62.7024   88.0939   12.1306 N.ar    1  UNL1       -0.2796
      2 C          61.8169   88.0965   10.9197 C.ar    1  UNL1        0.3339
      3 O          60.9736   86.8965   10.6048 O.2     1  UNL1       -0.2462
      4 N          61.7747   89.2988   10.0239 N.ar    1  UNL1       -0.2455
      5 C          60.8893   89.3013    8.8131 C.3     1  UNL1        0.1383
      6 C          62.6180   90.4987   10.3388 C.ar    1  UNL1        0.2816
      7 O          62.5758   91.7010    9.4430 O.2     1  UNL1       -0.2652
      8 C          63.5034   90.4962   11.5496 C.ar    1  UNL1        0.1342
      9 C          63.5456   89.2938   12.4455 C.ar    1  UNL1        0.0871
     10 C          64.5078   89.5798   13.5601 C.ar    1  UNL1        0.0515
     11 C          65.0603   90.9588   13.3531 C.ar    1  UNL1        0.1142
     12 N          64.4396   91.5252   12.1105 N.ar    1  UNL1       -0.3068
     13 N          66.0584   91.6502   14.2339 N.pl3   1  UNL1       -0.2932
     14 C          65.6383   92.1759   15.5745 C.3     1  UNL1        0.0922
     15 C          66.6364   92.8672   16.4553 C.3     1  UNL1        0.0228
     16 C          68.0546   93.0329   15.9956 C.3     1  UNL1        0.0177
     17 C          68.4747   92.5072   14.6550 C.3     1  UNL1        0.0575
     18 C          69.3466   92.1825   13.4785 C.3     1  UNL1        0.0173
     19 N          69.7756   93.0858   15.1272 N.3     1  UNL1       -0.3219
     20 C          67.4765   91.8159   13.7742 C.3     1  UNL1        0.1062
     21 H          69.6499   93.4937   16.0536 H       1  UNL1        0.1188
     22 H          70.0825   93.8085   14.4762 H       1  UNL1        0.1188
     23 C          63.2361   85.5776   12.4954 C.3     1  UNL1        0.0266
     24 C          62.7445   86.8915   13.0264 C.3     1  UNL1        0.1106
     25 C          64.7079   92.8824   11.5308 C.3     1  UNL1        0.1348
     26 C          65.9326   93.1125   10.6958 C.ar    1  UNL1        0.0123
     27 C          66.7147   91.9439   10.1736 C.ar    1  UNL1        0.0279
     28 C          67.9394   92.1740    9.3387 C.ar    1  UNL1        0.1399
     29 F          68.7215   91.0054    8.8165 F       1  UNL1       -0.2042
     30 C          68.3821   93.5727    9.0259 C.ar    1  UNL1        0.0303
     31 C          67.6000   94.7412    9.5481 C.ar    1  UNL1        0.0123
     32 C          66.3752   94.5112   10.3831 C.ar    1  UNL1        0.0664
     33 C          65.5931   95.6797   10.9053 C.1     1  UNL1        0.1002
     34 N          64.8110   96.8483   11.4275 N.1     1  UNL1       -0.1908
@<TRIPOS>BOND
     1    23    24    1
     2    24     1    1
     3     1     2   ar
     4     2     3    2
     5     2     4   ar
     6     4     5    1
     7     4     6   ar
     8     6     7    2
     9     6     8   ar
    10     8     9   ar
    11     9    10   ar
    12    10    11   ar
    13    11    13    1
    14    13    14    1
    15    14    15    1
    16    15    16    1
    17    16    17    1
    18    17    18    1
    19    17    19    1
    20    17    20    1
    21    11    12   ar
    22    12    25    1
    23    25    26    1
    24    26    27   ar
    25    27    28   ar
    26    28    29    1
    27    28    30   ar
    28    30    31   ar
    29    31    32   ar
    30    32    33    1
    31    33    34    3
    32     9     1   ar
    33    20    13    1
    34    32    26   ar
    35    12     8   ar
    36    19    21    1
    37    19    22    1
@<TRIPOS>MOLECULE
*****
 34 37 0 0 0
SMALL
GASTEIGER

@<TRIPOS>ATOM
      1 N          65.1152   92.3391   11.6650 N.ar    1  UNL1       -0.2796
      2 C          65.7696   92.6735   12.9728 C.ar    1  UNL1        0.3339
      3 O          66.6866   93.8565   13.0717 O.2     1  UNL1       -0.2462
      4 N          65.5070   91.8250   14.1814 N.ar    1  UNL1       -0.2455
      5 C          66.1614   92.1594   15.4892 C.3     1  UNL1        0.1383
      6 C          64.5901   90.6420   14.0825 C.ar    1  UNL1        0.2816
      7 O          64.3276   89.7934   15.2913 O.2     1  UNL1       -0.2652
      8 C          63.9357   90.3076   12.7749 C.ar    1  UNL1        0.1342
      9 C          64.1983   91.1561   11.5661 C.ar    1  UNL1        0.0871
     10 C          63.4167   90.5852   10.4203 C.ar    1  UNL1        0.0515
     11 C          62.6710   89.3838   10.9208 C.ar    1  UNL1        0.1142
     12 N          62.9918   89.2122   12.3760 N.ar    1  UNL1       -0.3068
     13 N          61.7638   88.5077   10.1087 N.pl3   1  UNL1       -0.2932
     14 C          60.2986   88.8179   10.0256 C.3     1  UNL1        0.0922
     15 C          59.3915   87.9417    9.2134 C.3     1  UNL1        0.0228
     16 C          59.9495   86.7554    8.4845 C.3     1  UNL1        0.0177
     17 C          61.4147   86.4452    8.5677 C.3     1  UNL1        0.0575
     18 C          62.7226   85.7465    8.3416 C.3     1  UNL1        0.0173
     19 N          60.9617   85.3265    7.6771 N.3     1  UNL1       -0.3219
     20 C          62.3218   87.3214    9.3798 C.3     1  UNL1        0.1062
     21 H          59.9564   85.4013    7.5217 H       1  UNL1        0.1188
     22 H          61.1716   84.4324    8.1209 H       1  UNL1        0.1188
     23 C          66.7541   93.2411    9.8622 C.3     1  UNL1        0.0266
     24 C          65.3778   93.1877   10.4563 C.3     1  UNL1        0.1106
     25 C          62.4617   88.1344   13.2746 C.3     1  UNL1        0.1348
     26 C          63.0858   86.7705   13.2587 C.ar    1  UNL1        0.0123
     27 C          63.2186   86.0215   11.9659 C.ar    1  UNL1        0.0279
     28 C          63.8426   84.6575   11.9501 C.ar    1  UNL1        0.1399
     29 F          63.9754   83.9085   10.6573 F       1  UNL1       -0.2042
     30 C          64.3339   84.0426   13.2271 C.ar    1  UNL1        0.0303
     31 C          64.2011   84.7916   14.5198 C.ar    1  UNL1        0.0123
     32 C          63.5771   86.1555   14.5357 C.ar    1  UNL1        0.0664
     33 C          63.4443   86.9045   15.8284 C.1     1  UNL1        0.1002
     34 N          63.3115   87.6536   17.1213 N.1     1  UNL1       -0.1908
@<TRIPOS>BOND
     1    23    24    1
     2    24     1    1
     3     1     2   ar
     4     2     3    2
     5     2     4   ar
     6     4     5    1
     7     4     6   ar
     8     6     7    2
     9     6     8   ar
    10     8     9   ar
    11     9    10   ar
    12    10    11   ar
    13    11    13    1
    14    13    14    1
    15    14    15    1
    16    15    16    1
    17    16    17    1
    18    17    18    1
    19    17    19    1
    20    17    20    1
    21    11    12   ar
    22    12    25    1
    23    25    26    1
    24    26    27   ar
    25    27    28   ar
    26    28    29    1
    27    28    30   ar
    28    30    31   ar
    29    31    32   ar
    30    32    33    1
    31    33    34    3
    32     9     1   ar
    33    20    13    1
    34    32    26   ar
    35    12     8   ar
    36    19    21    1
    37    19    22    1
@<TRIPOS>MOLECULE
*****
 34 37 0 0 0
SMALL
GASTEIGER

@<TRIPOS>ATOM
      1 N          61.2696   89.3249   10.8547 N.ar    1  UNL1       -0.2796
      2 C          60.8948   87.9779   10.3113 C.ar    1  UNL1        0.3339
      3 O          59.8376   87.8637    9.2532 O.2     1  UNL1       -0.2462
      4 N          61.5771   86.7453   10.8259 N.ar    1  UNL1       -0.2455
      5 C          61.2024   85.3983   10.2824 C.3     1  UNL1        0.1383
      6 C          62.6343   86.8595   11.8839 C.ar    1  UNL1        0.2816
      7 O          63.3166   85.6267   12.3984 O.2     1  UNL1       -0.2652
      8 C          63.0090   88.2064   12.4273 C.ar    1  UNL1        0.1342
      9 C          62.3267   89.4391   11.9127 C.ar    1  UNL1        0.0871
     10 C          62.9020   90.6224   12.6331 C.ar    1  UNL1        0.0515
     11 C          63.9400   90.1209   13.5928 C.ar    1  UNL1        0.1142
     12 N          64.0061   88.6278   13.4657 N.ar    1  UNL1       -0.3068
     13 N          64.7667   90.9645   14.5174 N.pl3   1  UNL1       -0.2932
     14 C          64.1715   91.4837   15.7927 C.3     1  UNL1        0.0922
     15 C          64.9984   92.3273   16.7172 C.3     1  UNL1        0.0228
     16 C          66.4203   92.6516   16.3667 C.3     1  UNL1        0.0177
     17 C          67.0155   92.1324   15.0914 C.3     1  UNL1        0.0575
     18 C          68.0188   91.8751   14.0065 C.3     1  UNL1        0.0173
     19 N          68.1906   92.8866   15.6392 N.3     1  UNL1       -0.3219
     20 C          66.1886   91.2888   14.1669 C.3     1  UNL1        0.1062
     21 H          67.9367   93.3104   16.5316 H       1  UNL1        0.1188
     22 H          68.4626   93.6170   14.9812 H       1  UNL1        0.1188
     23 C          59.3849   91.1022   11.0529 C.3     1  UNL1        0.0266
     24 C          60.5871   90.5576   10.3401 C.3     1  UNL1        0.1106
     25 C          64.9106   87.7161   14.2408 C.3     1  UNL1        0.1348
     26 C          64.3400   86.5357   14.9695 C.ar    1  UNL1        0.0123
     27 C          64.6749   85.1440   14.5211 C.ar    1  UNL1        0.0279
     28 C          64.1043   83.9635   15.2498 C.ar    1  UNL1        0.1399
     29 F          64.4391   82.5718   14.8014 F       1  UNL1       -0.2042
     30 C          63.1988   84.1748   16.4270 C.ar    1  UNL1        0.0303
     31 C          62.8640   85.5664   16.8754 C.ar    1  UNL1        0.0123
     32 C          63.4346   86.7469   16.1467 C.ar    1  UNL1        0.0664
     33 C          63.0998   88.1386   16.5951 C.1     1  UNL1        0.1002
     34 N          62.7650   89.5303   17.0435 N.1     1  UNL1       -0.1908
@<TRIPOS>BOND
     1    23    24    1
     2    24     1    1
     3     1     2   ar
     4     2     3    2
     5     2     4   ar
     6     4     5    1
     7     4     6   ar
     8     6     7    2
     9     6     8   ar
    10     8     9   ar
    11     9    10   ar
    12    10    11   ar
    13    11    13    1
    14    13    14    1
    15    14    15    1
    16    15    16    1
    17    16    17    1
    18    17    18    1
    19    17    19    1
    20    17    20    1
    21    11    12   ar
    22    12    25    1
    23    25    26    1
    24    26    27   ar
    25    27    28   ar
    26    28    29    1
    27    28    30   ar
    28    30    31   ar
    29    31    32   ar
    30    32    33    1
    31    33    34    3
    32     9     1   ar
    33    20    13    1
    34    32    26   ar
    35    12     8   ar
    36    19    21    1
    37    19    22    1
