@<TRIPOS>MOLECULE
*****
 30 32 0 0 0
SMALL
GASTEIGER

@<TRIPOS>ATOM
      1 C          64.2432   88.2475   14.8991 C.3     1  UNL1        0.0527
      2 C          64.1630   89.2938   13.8273 C.ar    1  UNL1        0.0688
      3 N          64.7416   90.6759   13.8993 N.ar    1  UNL1       -0.2282
      4 C          64.4263   91.3781   12.6118 C.ar    1  UNL1        0.1664
      5 S          63.6529   90.4300   11.7441 S.2     1  UNL1       -0.0502
      6 C          63.4901   89.1419   12.4954 C.ar    1  UNL1        0.0633
      7 N          64.8161   92.7818   12.2547 N.am    1  UNL1       -0.2483
      8 C          65.8931   93.0260   11.2396 C.2     1  UNL1        0.3094
      9 O          66.5804   91.8663   10.5815 O.2     1  UNL1       -0.2522
     10 N          66.2829   94.4297   10.8825 N.am    1  UNL1       -0.2572
     11 C          65.6880   95.6824   11.4541 C.3     1  UNL1        0.0955
     12 C          66.3734   96.8541   10.8160 C.3     1  UNL1        0.0238
     13 C          67.3920   96.3256    9.8500 C.3     1  UNL1        0.0310
     14 C          67.3360   94.8271    9.8911 C.3     1  UNL1        0.1528
     15 H          64.3651   93.5429   12.6866 H       1  UNL1        0.1583
     16 C          68.1843   93.8908    9.0828 C.2     1  UNL1        0.2375
     17 N          69.1867   93.0081    9.7654 N.am    1  UNL1       -0.3275
     18 O          68.0302   93.8370    7.5916 O.2     1  UNL1       -0.2736
     19 H          69.2879   93.0433   10.7440 H       1  UNL1        0.1450
     20 H          69.7435   92.3935    9.2348 H       1  UNL1        0.1450
     21 C          62.7792   87.9168   12.0013 C.ar    1  UNL1        0.0914
     22 C          61.6472   88.0487   11.0261 C.ar    1  UNL1        0.0404
     23 C          60.9364   86.8237   10.5321 C.ar    1  UNL1        0.1018
     24 N          61.3576   85.4668   11.0133 N.ar    1  UNL1       -0.2292
     25 C          62.4896   85.3350   11.9885 C.ar    1  UNL1        0.1383
     26 N          63.2004   86.5600   12.4825 N.ar    1  UNL1       -0.2302
     27 C          62.9108   83.9782   12.4697 C.3     1  UNL1        0.0524
     28 C          62.6618   84.4033   13.8865 C.3     1  UNL1        0.0075
     29 C          63.1598   83.5530   11.0530 C.3     1  UNL1        0.0075
     30 C          63.3320   82.6213   12.9509 C.3     1  UNL1        0.0075
@<TRIPOS>BOND
     1     1     2    1
     2     2     3   ar
     3     3     4   ar
     4     4     7    1
     5     7     8   am
     6     8     9    2
     7     8    10   am
     8    10    11    1
     9    11    12    1
    10    12    13    1
    11    13    14    1
    12    14    16    1
    13    16    17   am
    14    16    18    2
    15     4     5   ar
    16     5     6   ar
    17     6    21    1
    18    21    22   ar
    19    22    23   ar
    20    23    24   ar
    21    24    25   ar
    22    25    27    1
    23    27    28    1
    24    27    29    1
    25    27    30    1
    26    25    26   ar
    27     6     2   ar
    28    26    21   ar
    29    14    10    1
    30     7    15    1
    31    17    19    1
    32    17    20    1
@<TRIPOS>MOLECULE
*****
 30 32 0 0 0
SMALL
GASTEIGER

@<TRIPOS>ATOM
      1 C          62.3808   88.1933   11.5750 C.3     1  UNL1        0.0527
      2 C          63.1072   89.3976   12.0968 C.ar    1  UNL1        0.0688
      3 N          63.4284   90.6391   11.3187 N.ar    1  UNL1       -0.2282
      4 C          64.1596   91.5806   12.2292 C.ar    1  UNL1        0.1664
      5 S          64.2902   90.9209   13.5700 S.2     1  UNL1       -0.0502
      6 C          63.6398   89.5717   13.4882 C.ar    1  UNL1        0.0633
      7 N          64.6704   92.9426   11.8632 N.am    1  UNL1       -0.2483
      8 C          65.8469   93.0800   10.9428 C.2     1  UNL1        0.3094
      9 O          66.5125   91.8553   10.3885 O.2     1  UNL1       -0.2522
     10 N          66.3577   94.4420   10.5768 N.am    1  UNL1       -0.2572
     11 C          65.7976   95.7503   11.0505 C.3     1  UNL1        0.0955
     12 C          66.6121   96.8517   10.4393 C.3     1  UNL1        0.0238
     13 C          67.6756   96.2240    9.5879 C.3     1  UNL1        0.0310
     14 C          67.5184   94.7347    9.6729 C.3     1  UNL1        0.1528
     15 H          64.2336   93.7463   12.2271 H       1  UNL1        0.1583
     16 C          68.3720   93.7169    8.9762 C.2     1  UNL1        0.2375
     17 N          69.2849   92.8322    9.7724 N.am    1  UNL1       -0.3275
     18 O          68.3127   93.5837    7.4833 O.2     1  UNL1       -0.2736
     19 H          69.3239   92.9196   10.7522 H       1  UNL1        0.1450
     20 H          69.8452   92.1642    9.3151 H       1  UNL1        0.1450
     21 C          63.5396   88.5722   14.6022 C.ar    1  UNL1        0.0914
     22 C          63.1958   89.0273   15.9895 C.ar    1  UNL1        0.0404
     23 C          63.0956   88.0278   17.1034 C.ar    1  UNL1        0.1018
     24 N          63.3392   86.5731   16.8300 N.ar    1  UNL1       -0.2292
     25 C          63.6830   86.1180   15.4427 C.ar    1  UNL1        0.1383
     26 N          63.7832   87.1175   14.3288 N.ar    1  UNL1       -0.2302
     27 C          63.9266   84.6634   15.1693 C.3     1  UNL1        0.0524
     28 C          62.6032   84.3253   15.7894 C.3     1  UNL1        0.0075
     29 C          65.2499   85.0015   14.5493 C.3     1  UNL1        0.0075
     30 C          64.1701   83.2088   14.8960 C.3     1  UNL1        0.0075
@<TRIPOS>BOND
     1     1     2    1
     2     2     3   ar
     3     3     4   ar
     4     4     7    1
     5     7     8   am
     6     8     9    2
     7     8    10   am
     8    10    11    1
     9    11    12    1
    10    12    13    1
    11    13    14    1
    12    14    16    1
    13    16    17   am
    14    16    18    2
    15     4     5   ar
    16     5     6   ar
    17     6    21    1
    18    21    22   ar
    19    22    23   ar
    20    23    24   ar
    21    24    25   ar
    22    25    27    1
    23    27    28    1
    24    27    29    1
    25    27    30    1
    26    25    26   ar
    27     6     2   ar
    28    26    21   ar
    29    14    10    1
    30     7    15    1
    31    17    19    1
    32    17    20    1
@<TRIPOS>MOLECULE
*****
 30 32 0 0 0
SMALL
GASTEIGER

@<TRIPOS>ATOM
      1 C          63.2203   90.0140   17.1229 C.3     1  UNL1        0.0527
      2 C          63.4303   88.8600   16.1880 C.ar    1  UNL1        0.0688
      3 N          62.9641   87.4513   16.4077 N.ar    1  UNL1       -0.2282
      4 C          63.3890   86.6326   15.2247 C.ar    1  UNL1        0.1664
      5 S          64.1177   87.5354   14.2740 S.2     1  UNL1       -0.0502
      6 C          64.1433   88.9120   14.8693 C.ar    1  UNL1        0.0633
      7 N          63.1305   85.1684   15.0272 N.am    1  UNL1       -0.2483
      8 C          63.3105   84.5511   13.6720 C.2     1  UNL1        0.3094
      9 O          63.7490   85.3982   12.5142 O.2     1  UNL1       -0.2522
     10 N          63.0520   83.0868   13.4744 N.am    1  UNL1       -0.2572
     11 C          62.6111   82.1188   14.5321 C.3     1  UNL1        0.0955
     12 C          62.4756   80.7672   13.8959 C.3     1  UNL1        0.0238
     13 C          62.8327   80.8999   12.4451 C.3     1  UNL1        0.0310
     14 C          63.1889   82.3335   12.1846 C.3     1  UNL1        0.1528
     15 H          62.8426   84.6124   15.7870 H       1  UNL1        0.1583
     16 C          63.6085   82.9120   10.8659 C.2     1  UNL1        0.2375
     17 N          62.8183   84.0293   10.2516 N.am    1  UNL1       -0.3275
     18 O          64.8182   82.3733   10.1613 O.2     1  UNL1       -0.2736
     19 H          62.0244   84.3829   10.7140 H       1  UNL1        0.1450
     20 H          63.0937   84.4091    9.3860 H       1  UNL1        0.1450
     21 C          64.7715   90.1272   14.2540 C.ar    1  UNL1        0.0914
     22 C          64.1839   90.7275   13.0113 C.ar    1  UNL1        0.0404
     23 C          64.8122   91.9427   12.3960 C.ar    1  UNL1        0.1018
     24 N          66.0280   92.5575   13.0234 N.ar    1  UNL1       -0.2292
     25 C          66.6156   91.9573   14.2661 C.ar    1  UNL1        0.1383
     26 N          65.9874   90.7421   14.8814 N.ar    1  UNL1       -0.2302
     27 C          67.8314   92.5721   14.8935 C.3     1  UNL1        0.0524
     28 C          67.0136   92.9733   16.0853 C.3     1  UNL1        0.0075
     29 C          68.6493   92.1710   13.7018 C.3     1  UNL1        0.0075
     30 C          69.0473   93.1870   15.5209 C.3     1  UNL1        0.0075
@<TRIPOS>BOND
     1     1     2    1
     2     2     3   ar
     3     3     4   ar
     4     4     7    1
     5     7     8   am
     6     8     9    2
     7     8    10   am
     8    10    11    1
     9    11    12    1
    10    12    13    1
    11    13    14    1
    12    14    16    1
    13    16    17   am
    14    16    18    2
    15     4     5   ar
    16     5     6   ar
    17     6    21    1
    18    21    22   ar
    19    22    23   ar
    20    23    24   ar
    21    24    25   ar
    22    25    27    1
    23    27    28    1
    24    27    29    1
    25    27    30    1
    26    25    26   ar
    27     6     2   ar
    28    26    21   ar
    29    14    10    1
    30     7    15    1
    31    17    19    1
    32    17    20    1
@<TRIPOS>MOLECULE
*****
 30 32 0 0 0
SMALL
GASTEIGER

@<TRIPOS>ATOM
      1 C          63.3268   91.4321   16.7594 C.3     1  UNL1        0.0527
      2 C          63.7256   90.1979   16.0059 C.ar    1  UNL1        0.0688
      3 N          63.1512   88.8253   16.1952 N.ar    1  UNL1       -0.2282
      4 C          63.8394   87.8986   15.2371 C.ar    1  UNL1        0.1664
      5 S          64.8390   88.6986   14.4557 S.2     1  UNL1       -0.0502
      6 C          64.7687   90.1197   14.9308 C.ar    1  UNL1        0.0633
      7 N          63.5743   86.4299   15.0869 N.am    1  UNL1       -0.2483
      8 C          63.3123   85.8502   13.7284 C.2     1  UNL1        0.3094
      9 O          63.3152   86.7393   12.5203 O.2     1  UNL1       -0.2522
     10 N          63.0472   84.3814   13.5782 N.am    1  UNL1       -0.2572
     11 C          63.0125   83.3737   14.6887 C.3     1  UNL1        0.0955
     12 C          62.7142   82.0320   14.0879 C.3     1  UNL1        0.0238
     13 C          62.5646   82.2106   12.6061 C.3     1  UNL1        0.0310
     14 C          62.7704   83.6627   12.2911 C.3     1  UNL1        0.1528
     15 H          63.5724   85.8464   15.8798 H       1  UNL1        0.1583
     16 C          62.7100   84.2863   10.9283 C.2     1  UNL1        0.2375
     17 N          61.6983   85.3546   10.6364 N.am    1  UNL1       -0.3275
     18 O          63.6615   83.8417    9.8571 O.2     1  UNL1       -0.2736
     19 H          61.0738   85.6464   11.3393 H       1  UNL1        0.1450
     20 H          61.6587   85.7638    9.7419 H       1  UNL1        0.1450
     21 C          65.5963   91.2619   14.4205 C.ar    1  UNL1        0.0914
     22 C          66.7806   91.7402   15.2069 C.ar    1  UNL1        0.0404
     23 C          67.6081   92.8824   14.6965 C.ar    1  UNL1        0.1018
     24 N          67.2513   93.5464   13.3997 N.ar    1  UNL1       -0.2292
     25 C          66.0670   93.0681   12.6132 C.ar    1  UNL1        0.1383
     26 N          65.2395   91.9259   13.1236 N.ar    1  UNL1       -0.2302
     27 C          65.7102   93.7320   11.3163 C.3     1  UNL1        0.0524
     28 C          66.2650   95.0285   11.8274 C.3     1  UNL1        0.0075
     29 C          65.1553   92.4355   10.8052 C.3     1  UNL1        0.0075
     30 C          65.3534   94.3960   10.0195 C.3     1  UNL1        0.0075
@<TRIPOS>BOND
     1     1     2    1
     2     2     3   ar
     3     3     4   ar
     4     4     7    1
     5     7     8   am
     6     8     9    2
     7     8    10   am
     8    10    11    1
     9    11    12    1
    10    12    13    1
    11    13    14    1
    12    14    16    1
    13    16    17   am
    14    16    18    2
    15     4     5   ar
    16     5     6   ar
    17     6    21    1
    18    21    22   ar
    19    22    23   ar
    20    23    24   ar
    21    24    25   ar
    22    25    27    1
    23    27    28    1
    24    27    29    1
    25    27    30    1
    26    25    26   ar
    27     6     2   ar
    28    26    21   ar
    29    14    10    1
    30     7    15    1
    31    17    19    1
    32    17    20    1
@<TRIPOS>MOLECULE
*****
 30 32 0 0 0
SMALL
GASTEIGER

@<TRIPOS>ATOM
      1 C          58.7045   89.2168   11.8766 C.3     1  UNL1        0.0527
      2 C          60.2041   89.2000   11.9038 C.ar    1  UNL1        0.0688
      3 N          61.0751   89.8760   12.9209 N.ar    1  UNL1       -0.2282
      4 C          62.5054   89.5981   12.5644 C.ar    1  UNL1        0.1664
      5 S          62.5183   88.7504   11.3270 S.2     1  UNL1       -0.0502
      6 C          61.0961   88.5044   10.9187 C.ar    1  UNL1        0.0633
      7 N          63.7110   90.0828   13.3138 N.am    1  UNL1       -0.2483
      8 C          64.5801   91.1537   12.7241 C.2     1  UNL1        0.3094
      9 O          64.2436   91.7400   11.3850 O.2     1  UNL1       -0.2522
     10 N          65.7857   91.6384   13.4735 N.am    1  UNL1       -0.2572
     11 C          66.2455   91.1493   14.8148 C.3     1  UNL1        0.0955
     12 C          67.4872   91.9059   15.1834 C.3     1  UNL1        0.0238
     13 C          67.7946   92.8627   14.0699 C.3     1  UNL1        0.0310
     14 C          66.7430   92.6974   13.0131 C.3     1  UNL1        0.1528
     15 H          63.9318   89.6980   14.1927 H       1  UNL1        0.1583
     16 C          66.6630   93.4575   11.7225 C.2     1  UNL1        0.2375
     17 N          65.6768   94.5776   11.5717 N.am    1  UNL1       -0.3275
     18 O          67.5692   93.0977   10.5826 O.2     1  UNL1       -0.2736
     19 H          65.0820   94.8139   12.3198 H       1  UNL1        0.1450
     20 H          65.6243   95.0766   10.7246 H       1  UNL1        0.1450
     21 C          60.6450   87.7033    9.7334 C.ar    1  UNL1        0.0914
     22 C          59.2378   87.8344    9.2312 C.ar    1  UNL1        0.0404
     23 C          58.7868   87.0334    8.0459 C.ar    1  UNL1        0.1018
     24 N          59.7431   86.1012    7.3629 N.ar    1  UNL1       -0.2292
     25 C          61.1504   85.9701    7.8651 C.ar    1  UNL1        0.1383
     26 N          61.6013   86.7711    9.0504 N.ar    1  UNL1       -0.2302
     27 C          62.1067   85.0379    7.1821 C.3     1  UNL1        0.0524
     28 C          61.0556   84.7048    6.1651 C.3     1  UNL1        0.0075
     29 C          63.1577   85.3709    8.1992 C.3     1  UNL1        0.0075
     30 C          63.0630   84.1057    6.4991 C.3     1  UNL1        0.0075
@<TRIPOS>BOND
     1     1     2    1
     2     2     3   ar
     3     3     4   ar
     4     4     7    1
     5     7     8   am
     6     8     9    2
     7     8    10   am
     8    10    11    1
     9    11    12    1
    10    12    13    1
    11    13    14    1
    12    14    16    1
    13    16    17   am
    14    16    18    2
    15     4     5   ar
    16     5     6   ar
    17     6    21    1
    18    21    22   ar
    19    22    23   ar
    20    23    24   ar
    21    24    25   ar
    22    25    27    1
    23    27    28    1
    24    27    29    1
    25    27    30    1
    26    25    26   ar
    27     6     2   ar
    28    26    21   ar
    29    14    10    1
    30     7    15    1
    31    17    19    1
    32    17    20    1
@<TRIPOS>MOLECULE
*****
 30 32 0 0 0
SMALL
GASTEIGER

@<TRIPOS>ATOM
      1 C          62.7118   85.0799   12.7227 C.3     1  UNL1        0.0527
      2 C          63.0338   86.5442   12.7680 C.ar    1  UNL1        0.0688
      3 N          63.8892   87.2275   13.7934 N.ar    1  UNL1       -0.2282
      4 C          63.9411   88.6880   13.4550 C.ar    1  UNL1        0.1664
      5 S          63.1178   88.9072   12.2205 S.2     1  UNL1       -0.0502
      6 C          62.5571   87.5824   11.7959 C.ar    1  UNL1        0.0633
      7 N          64.6856   89.7437   14.2173 N.am    1  UNL1       -0.2483
      8 C          65.2421   90.9364   13.4978 C.2     1  UNL1        0.3094
      9 O          65.0541   91.0734   12.0159 O.2     1  UNL1       -0.2522
     10 N          65.9866   91.9922   14.2601 N.am    1  UNL1       -0.2572
     11 C          66.2521   91.9916   15.7364 C.3     1  UNL1        0.0955
     12 C          67.0259   93.2329   16.0686 C.3     1  UNL1        0.0238
     13 C          67.2386   94.0006   14.7977 C.3     1  UNL1        0.0310
     14 C          66.5963   93.2338   13.6799 C.3     1  UNL1        0.1528
     15 H          64.8090   89.6538   15.1899 H       1  UNL1        0.1583
     16 C          66.5686   93.6377   12.2356 C.2     1  UNL1        0.2375
     17 N          67.2737   92.8014   11.2092 N.am    1  UNL1       -0.3275
     18 O          65.8358   94.8780   11.8176 O.2     1  UNL1       -0.2736
     19 H          67.7547   91.9874   11.4835 H       1  UNL1        0.1450
     20 H          67.2555   93.0666   10.2613 H       1  UNL1        0.1450
     21 C          61.6745   87.3385   10.6077 C.ar    1  UNL1        0.0914
     22 C          60.3501   88.0346   10.5017 C.ar    1  UNL1        0.0404
     23 C          59.4676   87.7907    9.3136 C.ar    1  UNL1        0.1018
     24 N          59.9095   86.8506    8.2315 N.ar    1  UNL1       -0.2292
     25 C          61.2339   86.1545    8.3375 C.ar    1  UNL1        0.1383
     26 N          62.1164   86.3984    9.5256 N.ar    1  UNL1       -0.2302
     27 C          61.6759   85.2144    7.2553 C.3     1  UNL1        0.0524
     28 C          63.0580   85.1935    7.8379 C.3     1  UNL1        0.0075
     29 C          60.2938   85.2353    6.6728 C.3     1  UNL1        0.0075
     30 C          62.1178   84.2744    6.1732 C.3     1  UNL1        0.0075
@<TRIPOS>BOND
     1     1     2    1
     2     2     3   ar
     3     3     4   ar
     4     4     7    1
     5     7     8   am
     6     8     9    2
     7     8    10   am
     8    10    11    1
     9    11    12    1
    10    12    13    1
    11    13    14    1
    12    14    16    1
    13    16    17   am
    14    16    18    2
    15     4     5   ar
    16     5     6   ar
    17     6    21    1
    18    21    22   ar
    19    22    23   ar
    20    23    24   ar
    21    24    25   ar
    22    25    27    1
    23    27    28    1
    24    27    29    1
    25    27    30    1
    26    25    26   ar
    27     6     2   ar
    28    26    21   ar
    29    14    10    1
    30     7    15    1
    31    17    19    1
    32    17    20    1
@<TRIPOS>MOLECULE
*****
 30 32 0 0 0
SMALL
GASTEIGER

@<TRIPOS>ATOM
      1 C          63.0279   87.2726   17.5656 C.3     1  UNL1        0.0527
      2 C          63.3456   86.9756   16.1301 C.ar    1  UNL1        0.0688
      3 N          63.2118   85.6429   15.4550 N.ar    1  UNL1       -0.2282
      4 C          63.6365   85.8028   14.0252 C.ar    1  UNL1        0.1664
      5 S          64.0327   87.2344   13.8167 S.2     1  UNL1       -0.0502
      6 C          63.8530   87.9592   15.1176 C.ar    1  UNL1        0.0633
      7 N          63.6606   84.7210   12.9863 N.am    1  UNL1       -0.2483
      8 C          63.1217   83.3589   13.3093 C.2     1  UNL1        0.3094
      9 O          62.5587   83.0785   14.6711 O.2     1  UNL1       -0.2522
     10 N          63.1459   82.2771   12.2704 N.am    1  UNL1       -0.2572
     11 C          63.6747   82.4085   10.8729 C.3     1  UNL1        0.0955
     12 C          63.5011   81.0866   10.1855 C.3     1  UNL1        0.0238
     13 C          62.8649   80.1384   11.1582 C.3     1  UNL1        0.0310
     14 C          62.6454   80.8742   12.4468 C.3     1  UNL1        0.1528
     15 H          64.0301   84.9050   12.0926 H       1  UNL1        0.1583
     16 C          62.0330   80.3065   13.6928 C.2     1  UNL1        0.2375
     17 N          60.6345   80.6854   14.0809 N.am    1  UNL1       -0.3275
     18 O          62.8190   79.3599   14.5508 O.2     1  UNL1       -0.2736
     19 H          60.1185   81.3067   13.5178 H       1  UNL1        0.1450
     20 H          60.2325   80.3128   14.8987 H       1  UNL1        0.1450
     21 C          64.1317   89.4126   15.3630 C.ar    1  UNL1        0.0914
     22 C          63.5686   90.0897   16.5772 C.ar    1  UNL1        0.0404
     23 C          63.8473   91.5430   16.8224 C.ar    1  UNL1        0.1018
     24 N          64.6891   92.3192   15.8535 N.ar    1  UNL1       -0.2292
     25 C          65.2522   91.6421   14.6393 C.ar    1  UNL1        0.1383
     26 N          64.9735   90.1888   14.3940 N.ar    1  UNL1       -0.2302
     27 C          66.0941   92.4183   13.6703 C.3     1  UNL1        0.0524
     28 C          67.0405   92.7747   14.7781 C.3     1  UNL1        0.0075
     29 C          65.1477   92.0618   12.5625 C.3     1  UNL1        0.0075
     30 C          66.9359   93.1944   12.7014 C.3     1  UNL1        0.0075
@<TRIPOS>BOND
     1     1     2    1
     2     2     3   ar
     3     3     4   ar
     4     4     7    1
     5     7     8   am
     6     8     9    2
     7     8    10   am
     8    10    11    1
     9    11    12    1
    10    12    13    1
    11    13    14    1
    12    14    16    1
    13    16    17   am
    14    16    18    2
    15     4     5   ar
    16     5     6   ar
    17     6    21    1
    18    21    22   ar
    19    22    23   ar
    20    23    24   ar
    21    24    25   ar
    22    25    27    1
    23    27    28    1
    24    27    29    1
    25    27    30    1
    26    25    26   ar
    27     6     2   ar
    28    26    21   ar
    29    14    10    1
    30     7    15    1
    31    17    19    1
    32    17    20    1
@<TRIPOS>MOLECULE
*****
 30 32 0 0 0
SMALL
GASTEIGER

@<TRIPOS>ATOM
      1 C          59.5341   88.4270   11.0856 C.3     1  UNL1        0.0527
      2 C          60.9004   89.0160   10.8955 C.ar    1  UNL1        0.0688
      3 N          61.2103   90.4627   10.6489 N.ar    1  UNL1       -0.2282
      4 C          62.6982   90.6026   10.5196 C.ar    1  UNL1        0.1664
      5 S          63.3078   89.2422   10.6864 S.2     1  UNL1       -0.0502
      6 C          62.1967   88.2617   10.9187 C.ar    1  UNL1        0.0633
      7 N          63.4453   91.8787   10.2678 N.am    1  UNL1       -0.2483
      8 C          64.4889   92.3413   11.2409 C.2     1  UNL1        0.3094
      9 O          64.7855   91.5278   12.4658 O.2     1  UNL1       -0.2522
     10 N          65.2360   93.6174   10.9891 N.am    1  UNL1       -0.2572
     11 C          65.0491   94.5314    9.8145 C.3     1  UNL1        0.0955
     12 C          65.9987   95.6824    9.9671 C.3     1  UNL1        0.0238
     13 C          66.7725   95.4799   11.2361 C.3     1  UNL1        0.0310
     14 C          66.3011   94.2036   11.8677 C.3     1  UNL1        0.1528
     15 H          63.2507   92.4126    9.4639 H       1  UNL1        0.1583
     16 C          66.8061   93.6167   13.1523 C.2     1  UNL1        0.2375
     17 N          67.7844   92.4799   13.1242 N.am    1  UNL1       -0.3275
     18 O          66.3328   94.1664   14.4653 O.2     1  UNL1       -0.2736
     19 H          68.0950   92.1191   12.2625 H       1  UNL1        0.1450
     20 H          68.1159   92.0947   13.9674 H       1  UNL1        0.1450
     21 C          62.3543   86.7858   11.1361 C.ar    1  UNL1        0.0914
     22 C          62.1338   85.8325    9.9992 C.ar    1  UNL1        0.0404
     23 C          62.2914   84.3568   10.2166 C.ar    1  UNL1        0.1018
     24 N          62.6695   83.8344   11.5709 N.ar    1  UNL1       -0.2292
     25 C          62.8901   84.7877   12.7077 C.ar    1  UNL1        0.1383
     26 N          62.7325   86.2634   12.4904 N.ar    1  UNL1       -0.2302
     27 C          63.2682   84.2652   14.0620 C.3     1  UNL1        0.0524
     28 C          62.4408   83.0378   13.8195 C.3     1  UNL1        0.0075
     29 C          64.0956   85.4927   14.3045 C.3     1  UNL1        0.0075
     30 C          63.6463   83.7428   15.4163 C.3     1  UNL1        0.0075
@<TRIPOS>BOND
     1     1     2    1
     2     2     3   ar
     3     3     4   ar
     4     4     7    1
     5     7     8   am
     6     8     9    2
     7     8    10   am
     8    10    11    1
     9    11    12    1
    10    12    13    1
    11    13    14    1
    12    14    16    1
    13    16    17   am
    14    16    18    2
    15     4     5   ar
    16     5     6   ar
    17     6    21    1
    18    21    22   ar
    19    22    23   ar
    20    23    24   ar
    21    24    25   ar
    22    25    27    1
    23    27    28    1
    24    27    29    1
    25    27    30    1
    26    25    26   ar
    27     6     2   ar
    28    26    21   ar
    29    14    10    1
    30     7    15    1
    31    17    19    1
    32    17    20    1
@<TRIPOS>MOLECULE
*****
 30 32 0 0 0
SMALL
GASTEIGER

@<TRIPOS>ATOM
      1 C          61.6049   85.8397   10.9798 C.3     1  UNL1        0.0527
      2 C          61.9747   87.2890   11.0936 C.ar    1  UNL1        0.0688
      3 N          62.9211   87.8813   12.0954 N.ar    1  UNL1       -0.2282
      4 C          62.9943   89.3588   11.8467 C.ar    1  UNL1        0.1664
      5 S          62.0932   89.6795   10.6912 S.2     1  UNL1       -0.0502
      6 C          61.4630   88.4003   10.2258 C.ar    1  UNL1        0.0633
      7 N          63.8231   90.3427   12.6179 N.am    1  UNL1       -0.2483
      8 C          64.4667   91.4984   11.9107 C.2     1  UNL1        0.3094
      9 O          64.2814   91.6701   10.4320 O.2     1  UNL1       -0.2522
     10 N          65.2955   92.4823   12.6820 N.am    1  UNL1       -0.2572
     11 C          65.5686   92.4406   14.1563 C.3     1  UNL1        0.0955
     12 C          66.4386   93.6132   14.4998 C.3     1  UNL1        0.0238
     13 C          66.7033   94.3796   13.2379 C.3     1  UNL1        0.0310
     14 C          65.9968   93.6806   12.1143 C.3     1  UNL1        0.1528
     15 H          63.9447   90.2300   13.5884 H       1  UNL1        0.1583
     16 C          65.9924   94.1054   10.6758 C.2     1  UNL1        0.2375
     17 N          65.1293   95.2501   10.2344 N.am    1  UNL1       -0.3275
     18 O          66.8510   93.3856    9.6785 O.2     1  UNL1       -0.2736
     19 H          64.5657   95.7226   10.8889 H       1  UNL1        0.1450
     20 H          65.1264   95.5290    9.2902 H       1  UNL1        0.1450
     21 C          60.4917   88.2575    9.0917 C.ar    1  UNL1        0.0914
     22 C          59.6865   87.0002    8.9476 C.ar    1  UNL1        0.0404
     23 C          58.7152   86.8575    7.8135 C.ar    1  UNL1        0.1018
     24 N          58.5492   87.9720    6.8235 N.ar    1  UNL1       -0.2292
     25 C          59.3543   89.2293    6.9675 C.ar    1  UNL1        0.1383
     26 N          60.3256   89.3721    8.1017 N.ar    1  UNL1       -0.2302
     27 C          59.1883   90.3439    5.9775 C.3     1  UNL1        0.0524
     28 C          57.6981   90.2490    6.1206 C.3     1  UNL1        0.0075
     29 C          60.6784   90.4389    5.8345 C.3     1  UNL1        0.0075
     30 C          59.0222   91.4585    4.9875 C.3     1  UNL1        0.0075
@<TRIPOS>BOND
     1     1     2    1
     2     2     3   ar
     3     3     4   ar
     4     4     7    1
     5     7     8   am
     6     8     9    2
     7     8    10   am
     8    10    11    1
     9    11    12    1
    10    12    13    1
    11    13    14    1
    12    14    16    1
    13    16    17   am
    14    16    18    2
    15     4     5   ar
    16     5     6   ar
    17     6    21    1
    18    21    22   ar
    19    22    23   ar
    20    23    24   ar
    21    24    25   ar
    22    25    27    1
    23    27    28    1
    24    27    29    1
    25    27    30    1
    26    25    26   ar
    27     6     2   ar
    28    26    21   ar
    29    14    10    1
    30     7    15    1
    31    17    19    1
    32    17    20    1
