@<TRIPOS>MOLECULE
*****
 36 39 0 0 0
SMALL
GASTEIGER

@<TRIPOS>ATOM
      1 C          65.0774   92.2781   11.7818 C.ar    1  UNL1        0.1370
      2 C          64.2007   91.1730   12.2919 C.ar    1  UNL1        0.0379
      3 C          63.1062   90.6235   11.4258 C.ar    1  UNL1        0.0178
      4 C          62.6180   90.9521   10.0008 C.ar    1  UNL1        0.0504
      5 C          63.7766   91.7964   10.4421 C.ar    1  UNL1        0.0158
      6 C          64.8595   92.8336   10.4055 C.ar    1  UNL1        0.0425
      7 C          65.7362   93.9387    9.8954 C.3     1  UNL1        0.1721
      8 O          66.3009   94.9783    8.9732 O.3     1  UNL1       -0.3442
      9 C          66.4854   95.8271    7.7503 C.3     1  UNL1        0.1686
     10 C          66.2676   96.3826    6.3742 C.2     1  UNL1        0.0036
     11 C          65.6737   96.5779    5.0106 C.2     1  UNL1        0.0036
     12 C          64.7753   96.3895    3.8243 C.3     1  UNL1        0.1686
     13 O          63.6808   95.8399    2.9582 O.3     1  UNL1       -0.3443
     14 C          62.5222   94.9956    2.5169 C.3     1  UNL1        0.1691
     15 C          61.4392   93.9584    2.5535 C.ar    1  UNL1        0.0073
     16 C          60.5409   93.7699    1.3672 C.ar    1  UNL1       -0.0019
     17 C          59.4580   92.7327    1.4038 C.ar    1  UNL1       -0.0002
     18 C          59.2734   91.8839    2.6267 C.ar    1  UNL1        0.0015
     19 C          60.1718   92.0724    3.8130 C.ar    1  UNL1        0.0176
     20 C          61.2547   93.1096    3.7764 C.ar    1  UNL1       -0.0004
     21 C          59.8133   90.9649    5.2087 C.ar    1  UNL1        0.0857
     22 C          58.8283   89.8371    5.5758 C.ar    1  UNL1        0.0399
     23 C          58.6438   88.9884    6.7987 C.ar    1  UNL1        0.1034
     24 N          59.5421   89.1768    7.9850 N.ar    1  UNL1       -0.2120
     25 C          60.6251   90.2141    7.9484 C.ar    1  UNL1        0.2207
     26 N          60.0312   90.4094    6.5849 N.ar    1  UNL1       -0.2135
     27 N          61.5235   90.4026    9.1347 N.pl3   1  UNL1       -0.2825
     28 H          61.1529   89.7202    9.7400 H       1  UNL1        0.1551
     29 O          66.1719   92.8277   12.6478 O.3     1  UNL1       -0.4742
     30 C          67.3439   91.9654   13.0126 C.3     1  UNL1        0.2226
     31 C          67.4167   91.3348   14.3717 C.3     1  UNL1        0.1200
     32 N          67.4371   92.1975   15.5987 N.3     1  UNL1       -0.2696
     33 C          64.8758   91.8824   15.8989 C.3     1  UNL1        0.0188
     34 C          66.1501   92.5836   16.2655 C.3     1  UNL1        0.0722
     35 C          68.7445   92.6740   16.1587 C.3     1  UNL1        0.0722
     36 C          69.1035   94.1289   16.0916 C.3     1  UNL1        0.0188
@<TRIPOS>BOND
     1    33    34    1
     2    34    32    1
     3    32    35    1
     4    35    36    1
     5    32    31    1
     6    31    30    1
     7    30    29    1
     8    29     1    1
     9     1     2   ar
    10     2     3   ar
    11     3     4   ar
    12     4     5   ar
    13     5     6   ar
    14     6     7    1
    15     7     8    1
    16     8     9    1
    17     9    10    1
    18    10    11    2
    19    11    12    1
    20    12    13    1
    21    13    14    1
    22    14    15    1
    23    15    16   ar
    24    16    17   ar
    25    17    18   ar
    26    18    19   ar
    27    19    20   ar
    28    19    21    1
    29    21    22   ar
    30    22    23   ar
    31    23    24   ar
    32    24    25   ar
    33    25    26   ar
    34    25    27    1
    35     6     1   ar
    36    20    15   ar
    37    26    21   ar
    38    27     4    1
    39    27    28    1
@<TRIPOS>MOLECULE
*****
 36 39 0 0 0
SMALL
GASTEIGER

@<TRIPOS>ATOM
      1 C          60.3883   89.1591    9.4461 C.ar    1  UNL1        0.1370
      2 C          59.3242   88.7051    8.4914 C.ar    1  UNL1        0.0379
      3 C          59.2510   89.2949    7.1142 C.ar    1  UNL1        0.0178
      4 C          60.0858   90.3572    6.3717 C.ar    1  UNL1        0.0504
      5 C          60.5605   90.0989    7.7710 C.ar    1  UNL1        0.0158
      6 C          61.3792   90.2030    9.0235 C.ar    1  UNL1        0.0425
      7 C          62.4434   90.6571    9.9782 C.3     1  UNL1        0.1721
      8 O          63.6246   91.4063   10.5198 O.3     1  UNL1       -0.3442
      9 C          64.7803   92.3604   10.5832 C.3     1  UNL1        0.1686
     10 C          65.7712   93.4041   10.1606 C.2     1  UNL1        0.0036
     11 C          66.4778   94.4118    9.3030 C.2     1  UNL1        0.0036
     12 C          66.8147   95.2618    8.1140 C.3     1  UNL1        0.1686
     13 O          66.7415   95.8515    6.7367 O.3     1  UNL1       -0.3443
     14 C          66.2668   96.1099    5.3375 C.3     1  UNL1        0.1691
     15 C          65.4481   96.0058    4.0849 C.ar    1  UNL1        0.0073
     16 C          65.7850   96.8558    2.8958 C.ar    1  UNL1       -0.0019
     17 C          64.9663   96.7517    1.6433 C.ar    1  UNL1       -0.0002
     18 C          63.8105   95.7976    1.5800 C.ar    1  UNL1        0.0015
     19 C          63.4735   94.9476    2.7691 C.ar    1  UNL1        0.0176
     20 C          64.2923   95.0518    4.0215 C.ar    1  UNL1       -0.0004
     21 C          62.0470   93.8484    2.5252 C.ar    1  UNL1        0.0857
     22 C          61.0235   93.4969    1.4271 C.ar    1  UNL1        0.0399
     23 C          59.8677   92.5428    1.3637 C.ar    1  UNL1        0.1034
     24 N          59.5308   91.6929    2.5528 N.ar    1  UNL1       -0.2120
     25 C          60.3495   91.7970    3.8053 C.ar    1  UNL1        0.2207
     26 N          61.0561   92.8046    2.9478 N.ar    1  UNL1       -0.2135
     27 N          60.0126   90.9470    4.9945 N.pl3   1  UNL1       -0.2825
     28 H          59.2373   90.4552    4.6390 H       1  UNL1        0.1551
     29 O          60.4616   88.5694   10.8234 O.3     1  UNL1       -0.4742
     30 C          60.7522   87.1083   10.9990 C.3     1  UNL1        0.2226
     31 C          61.3654   86.3254    9.8761 C.3     1  UNL1        0.1200
     32 N          62.4132   85.2920   10.1669 N.3     1  UNL1       -0.2696
     33 C          63.1947   83.5423   11.9211 C.3     1  UNL1        0.0188
     34 C          62.7368   84.9309   11.5864 C.3     1  UNL1        0.0722
     35 C          63.1372   84.6200    9.0382 C.3     1  UNL1        0.0722
     36 C          62.9709   85.1234    7.6350 C.3     1  UNL1        0.0188
@<TRIPOS>BOND
     1    33    34    1
     2    34    32    1
     3    32    35    1
     4    35    36    1
     5    32    31    1
     6    31    30    1
     7    30    29    1
     8    29     1    1
     9     1     2   ar
    10     2     3   ar
    11     3     4   ar
    12     4     5   ar
    13     5     6   ar
    14     6     7    1
    15     7     8    1
    16     8     9    1
    17     9    10    1
    18    10    11    2
    19    11    12    1
    20    12    13    1
    21    13    14    1
    22    14    15    1
    23    15    16   ar
    24    16    17   ar
    25    17    18   ar
    26    18    19   ar
    27    19    20   ar
    28    19    21    1
    29    21    22   ar
    30    22    23   ar
    31    23    24   ar
    32    24    25   ar
    33    25    26   ar
    34    25    27    1
    35     6     1   ar
    36    20    15   ar
    37    26    21   ar
    38    27     4    1
    39    27    28    1
@<TRIPOS>MOLECULE
*****
 36 39 0 0 0
SMALL
GASTEIGER

@<TRIPOS>ATOM
      1 C          64.3741   91.4560   11.9045 C.ar    1  UNL1        0.1370
      2 C          63.3502   90.4155   12.2494 C.ar    1  UNL1        0.0379
      3 C          62.2873   90.0509   11.2558 C.ar    1  UNL1        0.0178
      4 C          61.9620   90.5340    9.8283 C.ar    1  UNL1        0.0504
      5 C          63.1553   91.2156   10.4295 C.ar    1  UNL1        0.0158
      6 C          64.3350   92.1318   10.5658 C.ar    1  UNL1        0.0425
      7 C          65.3589   93.1723   10.2209 C.3     1  UNL1        0.1721
      8 O          66.1035   94.2115    9.4362 O.3     1  UNL1       -0.3442
      9 C          66.4789   95.1241    8.3065 C.3     1  UNL1        0.1686
     10 C          66.4399   95.7999    6.9680 C.2     1  UNL1        0.0036
     11 C          65.9911   96.1575    5.5820 C.2     1  UNL1        0.0036
     12 C          65.1868   96.1538    4.3160 C.3     1  UNL1        0.1686
     13 O          64.1239   95.7892    3.3224 O.3     1  UNL1       -0.3443
     14 C          62.9306   95.1076    2.7211 C.3     1  UNL1        0.1691
     15 C          61.7508   94.1913    2.5847 C.ar    1  UNL1        0.0073
     16 C          60.9465   94.1876    1.3187 C.ar    1  UNL1       -0.0019
     17 C          59.7668   93.2713    1.1823 C.ar    1  UNL1       -0.0002
     18 C          59.3914   92.3588    2.3120 C.ar    1  UNL1        0.0015
     19 C          60.1957   92.3625    3.5781 C.ar    1  UNL1        0.0176
     20 C          61.3754   93.2788    3.7145 C.ar    1  UNL1       -0.0004
     21 C          59.6069   91.1991    4.8441 C.ar    1  UNL1        0.0857
     22 C          58.4861   90.1582    5.0364 C.ar    1  UNL1        0.0399
     23 C          58.1106   89.2456    6.1661 C.ar    1  UNL1        0.1034
     24 N          58.9150   89.2493    7.4322 N.ar    1  UNL1       -0.2120
     25 C          60.0947   90.1656    7.5685 C.ar    1  UNL1        0.2207
     26 N          59.6460   90.5233    6.1827 N.ar    1  UNL1       -0.2135
     27 N          60.8991   90.1694    8.8347 N.pl3   1  UNL1       -0.2825
     28 H          60.4104   89.4873    9.3497 H       1  UNL1        0.1551
     29 O          65.4370   91.8206   12.8980 O.3     1  UNL1       -0.4742
     30 C          65.6159   90.9992   14.1403 C.3     1  UNL1        0.2226
     31 C          64.5173   90.9316   15.1593 C.3     1  UNL1        0.1200
     32 N          63.8472   89.6222   15.4540 N.3     1  UNL1       -0.2696
     33 C          64.6018   87.2407   14.7407 C.3     1  UNL1        0.0188
     34 C          63.8774   88.5189   14.4382 C.3     1  UNL1        0.0722
     35 C          63.1470   89.4164   16.7644 C.3     1  UNL1        0.0722
     36 C          62.9264   88.0277   17.2869 C.3     1  UNL1        0.0188
@<TRIPOS>BOND
     1    33    34    1
     2    34    32    1
     3    32    35    1
     4    35    36    1
     5    32    31    1
     6    31    30    1
     7    30    29    1
     8    29     1    1
     9     1     2   ar
    10     2     3   ar
    11     3     4   ar
    12     4     5   ar
    13     5     6   ar
    14     6     7    1
    15     7     8    1
    16     8     9    1
    17     9    10    1
    18    10    11    2
    19    11    12    1
    20    12    13    1
    21    13    14    1
    22    14    15    1
    23    15    16   ar
    24    16    17   ar
    25    17    18   ar
    26    18    19   ar
    27    19    20   ar
    28    19    21    1
    29    21    22   ar
    30    22    23   ar
    31    23    24   ar
    32    24    25   ar
    33    25    26   ar
    34    25    27    1
    35     6     1   ar
    36    20    15   ar
    37    26    21   ar
    38    27     4    1
    39    27    28    1
@<TRIPOS>MOLECULE
*****
 36 39 0 0 0
SMALL
GASTEIGER

@<TRIPOS>ATOM
      1 C          60.6759   89.2740    9.7092 C.ar    1  UNL1        0.1370
      2 C          59.5736   88.7799    8.8199 C.ar    1  UNL1        0.0379
      3 C          59.4258   89.3301    7.4324 C.ar    1  UNL1        0.0178
      4 C          60.2087   90.3821    6.6217 C.ar    1  UNL1        0.0504
      5 C          60.7538   90.1689    8.0028 C.ar    1  UNL1        0.0158
      6 C          61.6304   90.3183    9.2107 C.ar    1  UNL1        0.0425
      7 C          62.7328   90.8125   10.1000 C.3     1  UNL1        0.1721
      8 O          63.9279   91.5916   10.5631 O.3     1  UNL1       -0.3442
      9 C          65.0717   92.5619   10.5444 C.3     1  UNL1        0.1686
     10 C          66.0261   93.6062   10.0460 C.2     1  UNL1        0.0036
     11 C          66.6762   94.5986    9.1281 C.2     1  UNL1        0.0036
     12 C          66.9434   95.4194    7.9014 C.3     1  UNL1        0.1686
     13 O          66.7956   95.9696    6.5138 O.3     1  UNL1       -0.3443
     14 C          66.2505   96.1828    5.1328 C.3     1  UNL1        0.1691
     15 C          65.3739   96.0334    3.9247 C.ar    1  UNL1        0.0073
     16 C          65.6411   96.8542    2.6980 C.ar    1  UNL1       -0.0019
     17 C          64.7645   96.7047    1.4900 C.ar    1  UNL1       -0.0002
     18 C          63.6208   95.7345    1.5088 C.ar    1  UNL1        0.0015
     19 C          63.3535   94.9137    2.7355 C.ar    1  UNL1        0.0176
     20 C          64.2301   95.0631    3.9434 C.ar    1  UNL1       -0.0004
     21 C          61.9326   93.7899    2.5910 C.ar    1  UNL1        0.0857
     22 C          60.8625   93.3948    1.5539 C.ar    1  UNL1        0.0399
     23 C          59.7188   92.4245    1.5726 C.ar    1  UNL1        0.1034
     24 N          59.4515   91.6037    2.7993 N.ar    1  UNL1       -0.2120
     25 C          60.3281   91.7532    4.0073 C.ar    1  UNL1        0.2207
     26 N          60.9782   92.7456    3.0895 N.ar    1  UNL1       -0.2135
     27 N          60.0609   90.9323    5.2341 N.pl3   1  UNL1       -0.2825
     28 H          59.2765   90.4209    4.9301 H       1  UNL1        0.1551
     29 O          60.8238   88.7238   11.0968 O.3     1  UNL1       -0.4742
     30 C          61.8981   87.7202   11.3950 C.3     1  UNL1        0.2226
     31 C          63.1871   88.1649   12.0200 C.3     1  UNL1        0.1200
     32 N          63.6279   87.5782   13.3283 N.3     1  UNL1       -0.2696
     33 C          64.4627   85.4596   14.5790 C.3     1  UNL1        0.0188
     34 C          63.5926   86.0928   13.5340 C.3     1  UNL1        0.0722
     35 C          64.1039   88.4770   14.4307 C.3     1  UNL1        0.0722
     36 C          63.6845   89.9170   14.4583 C.3     1  UNL1        0.0188
@<TRIPOS>BOND
     1    33    34    1
     2    34    32    1
     3    32    35    1
     4    35    36    1
     5    32    31    1
     6    31    30    1
     7    30    29    1
     8    29     1    1
     9     1     2   ar
    10     2     3   ar
    11     3     4   ar
    12     4     5   ar
    13     5     6   ar
    14     6     7    1
    15     7     8    1
    16     8     9    1
    17     9    10    1
    18    10    11    2
    19    11    12    1
    20    12    13    1
    21    13    14    1
    22    14    15    1
    23    15    16   ar
    24    16    17   ar
    25    17    18   ar
    26    18    19   ar
    27    19    20   ar
    28    19    21    1
    29    21    22   ar
    30    22    23   ar
    31    23    24   ar
    32    24    25   ar
    33    25    26   ar
    34    25    27    1
    35     6     1   ar
    36    20    15   ar
    37    26    21   ar
    38    27     4    1
    39    27    28    1
