@<TRIPOS>MOLECULE
*****
 28 30 0 0 0
SMALL
GASTEIGER

@<TRIPOS>ATOM
      1 C          65.6927   92.2619   12.8290 C.ar    1  UNL1        0.0942
      2 C          64.3500   91.7048   12.4594 C.ar    1  UNL1        0.1078
      3 N          63.5253   90.9904   13.4887 N.ar    1  UNL1       -0.2119
      4 C          64.0434   90.8331   14.8876 C.ar    1  UNL1        0.2206
      5 N          65.3861   91.3902   15.2571 N.ar    1  UNL1       -0.2094
      6 C          66.2108   92.1046   14.2278 C.ar    1  UNL1        0.1613
      7 O          67.6532   92.2666   11.1241 O.2     1  UNL1       -0.2700
      8 C          66.5175   92.9763   11.7996 C.2     1  UNL1        0.2488
      9 N          66.2064   94.4004   11.4459 N.am    1  UNL1       -0.3008
     10 H          65.4610   94.8662   11.8892 H       1  UNL1        0.1497
     11 C          67.0312   95.1148   10.4165 C.3     1  UNL1        0.0896
     12 C          66.3594   95.8346    9.2849 C.3     1  UNL1        0.0196
     13 C          66.5131   95.8425    7.7928 C.3     1  UNL1        0.0017
     14 C          65.4094   96.8526    7.6845 C.3     1  UNL1        0.0001
     15 C          65.2558   96.8447    9.1766 C.3     1  UNL1        0.0017
     16 C          67.5536   92.6617   14.5974 C.3     1  UNL1        0.4351
     17 F          68.8964   93.2187   14.9669 F       1  UNL1       -0.1644
     18 F          68.2157   91.4387   14.0353 F       1  UNL1       -0.1644
     19 F          66.8916   93.8846   15.1595 F       1  UNL1       -0.1644
     20 N          63.2186   90.1187   15.9169 N.pl3   1  UNL1       -0.2825
     21 H          62.5787   90.6217   16.4707 H       1  UNL1        0.1551
     22 C          63.3688   88.6378   16.1024 C.ar    1  UNL1        0.0513
     23 C          62.7717   87.9681   17.3045 C.ar    1  UNL1        0.0147
     24 C          62.9220   86.4872   17.4899 C.ar    1  UNL1        0.0021
     25 C          63.6693   85.6760   16.4734 C.ar    1  UNL1        0.0115
     26 C          64.2664   86.3457   15.2713 C.ar    1  UNL1        0.0589
     27 CL         65.0137   85.5345   14.2547 Cl      1  UNL1       -0.0822
     28 C          64.1162   87.8266   15.0858 C.ar    1  UNL1        0.0261
@<TRIPOS>BOND
     1     7     8    2
     2     8     9   am
     3     9    11    1
     4    11    12    1
     5    12    13    1
     6    13    14    1
     7    14    15    1
     8     8     1    1
     9     1     2   ar
    10     2     3   ar
    11     3     4   ar
    12     4    20    1
    13    20    22    1
    14    22    23   ar
    15    23    24   ar
    16    24    25   ar
    17    25    26   ar
    18    26    27    1
    19    26    28   ar
    20     4     5   ar
    21     5     6   ar
    22     6    16    1
    23    16    17    1
    24    16    18    1
    25    16    19    1
    26    15    12    1
    27     6     1   ar
    28    28    22   ar
    29     9    10    1
    30    20    21    1
@<TRIPOS>MOLECULE
*****
 28 30 0 0 0
SMALL
GASTEIGER

@<TRIPOS>ATOM
      1 C          61.1050   88.9500   10.2268 C.ar    1  UNL1        0.0942
      2 C          61.0708   90.2979   10.8838 C.ar    1  UNL1        0.1078
      3 N          61.9599   90.5829   12.0578 N.ar    1  UNL1       -0.2119
      4 C          62.8833   89.5198   12.5748 C.ar    1  UNL1        0.2206
      5 N          62.9176   88.1718   11.9178 N.ar    1  UNL1       -0.2094
      6 C          62.0284   87.8869   10.7438 C.ar    1  UNL1        0.1613
      7 O          59.4043   87.4041    9.0153 O.2     1  UNL1       -0.2700
      8 C          60.2159   88.6650    9.0528 C.2     1  UNL1        0.2488
      9 N          60.1383   89.6409    7.9164 N.am    1  UNL1       -0.3008
     10 H          60.6710   90.4685    7.9410 H       1  UNL1        0.1497
     11 C          59.2492   89.3559    6.7424 C.3     1  UNL1        0.0896
     12 C          58.9408   90.4414    5.7541 C.3     1  UNL1        0.0196
     13 C          59.7601   91.3443    4.8804 C.3     1  UNL1        0.0017
     14 C          58.5048   91.9765    4.3565 C.3     1  UNL1        0.0001
     15 C          57.6855   91.0736    5.2303 C.3     1  UNL1        0.0017
     16 C          62.0626   86.5388   10.0867 C.3     1  UNL1        0.4351
     17 F          62.0968   85.1908    9.4298 F       1  UNL1       -0.1644
     18 F          61.1938   85.9854   11.1770 F       1  UNL1       -0.1644
     19 F          62.9315   87.0922    8.9965 F       1  UNL1       -0.1644
     20 N          63.7725   89.8048   13.7488 N.pl3   1  UNL1       -0.2825
     21 H          63.7569   89.2107   14.5337 H       1  UNL1        0.1551
     22 C          64.6853   90.9948   13.7268 C.ar    1  UNL1        0.0513
     23 C          64.8378   91.8000   12.4705 C.ar    1  UNL1        0.0147
     24 C          65.7507   92.9901   12.4486 C.ar    1  UNL1        0.0021
     25 C          66.5111   93.3748   13.6829 C.ar    1  UNL1        0.0115
     26 C          66.3587   92.5696   14.9393 C.ar    1  UNL1        0.0589
     27 CL         67.1191   92.9543   16.1736 Cl      1  UNL1       -0.0822
     28 C          65.4458   91.3796   14.9612 C.ar    1  UNL1        0.0261
@<TRIPOS>BOND
     1     7     8    2
     2     8     9   am
     3     9    11    1
     4    11    12    1
     5    12    13    1
     6    13    14    1
     7    14    15    1
     8     8     1    1
     9     1     2   ar
    10     2     3   ar
    11     3     4   ar
    12     4    20    1
    13    20    22    1
    14    22    23   ar
    15    23    24   ar
    16    24    25   ar
    17    25    26   ar
    18    26    27    1
    19    26    28   ar
    20     4     5   ar
    21     5     6   ar
    22     6    16    1
    23    16    17    1
    24    16    18    1
    25    16    19    1
    26    15    12    1
    27     6     1   ar
    28    28    22   ar
    29     9    10    1
    30    20    21    1
@<TRIPOS>MOLECULE
*****
 28 30 0 0 0
SMALL
GASTEIGER

@<TRIPOS>ATOM
      1 C          63.0521   88.9775   12.1932 C.ar    1  UNL1        0.0942
      2 C          63.9773   89.2032   13.3521 C.ar    1  UNL1        0.1078
      3 N          64.7054   90.5076   13.4874 N.ar    1  UNL1       -0.2119
      4 C          64.5083   91.5863   12.4639 C.ar    1  UNL1        0.2206
      5 N          63.5831   91.3606   11.3051 N.ar    1  UNL1       -0.2094
      6 C          62.8550   90.0562   11.1697 C.ar    1  UNL1        0.1613
      7 O          60.8677   87.6609   11.6983 O.2     1  UNL1       -0.2700
      8 C          62.3240   87.6731   12.0578 C.2     1  UNL1        0.2488
      9 N          63.0520   86.3809   12.2819 N.am    1  UNL1       -0.3008
     10 H          64.0078   86.3890   12.5178 H       1  UNL1        0.1497
     11 C          62.3238   85.0765   12.1464 C.3     1  UNL1        0.0896
     12 C          62.9710   83.9269   11.4326 C.3     1  UNL1        0.0196
     13 C          63.8065   83.7816   10.1953 C.3     1  UNL1        0.0017
     14 C          63.8862   82.3011   10.4230 C.3     1  UNL1        0.0001
     15 C          63.0506   82.4464   11.6602 C.3     1  UNL1        0.0017
     16 C          61.9298   89.8305   10.0108 C.3     1  UNL1        0.4351
     17 F          61.0046   89.6047    8.8519 F       1  UNL1       -0.1644
     18 F          62.8955   88.8389    9.4329 F       1  UNL1       -0.1644
     19 F          60.9640   90.8221   10.5887 F       1  UNL1       -0.1644
     20 N          65.2365   92.8908   12.5994 N.pl3   1  UNL1       -0.2825
     21 H          65.1794   93.4015   13.4391 H       1  UNL1        0.1551
     22 C          66.0516   93.4170   11.4554 C.ar    1  UNL1        0.0513
     23 C          65.9352   94.8568   11.0514 C.ar    1  UNL1        0.0147
     24 C          66.7504   95.3830    9.9074 C.ar    1  UNL1        0.0021
     25 C          67.6819   94.4693    9.1675 C.ar    1  UNL1        0.0115
     26 C          67.7983   93.0295    9.5715 C.ar    1  UNL1        0.0589
     27 CL         68.7298   92.1158    8.8316 Cl      1  UNL1       -0.0822
     28 C          66.9832   92.5033   10.7155 C.ar    1  UNL1        0.0261
@<TRIPOS>BOND
     1     7     8    2
     2     8     9   am
     3     9    11    1
     4    11    12    1
     5    12    13    1
     6    13    14    1
     7    14    15    1
     8     8     1    1
     9     1     2   ar
    10     2     3   ar
    11     3     4   ar
    12     4    20    1
    13    20    22    1
    14    22    23   ar
    15    23    24   ar
    16    24    25   ar
    17    25    26   ar
    18    26    27    1
    19    26    28   ar
    20     4     5   ar
    21     5     6   ar
    22     6    16    1
    23    16    17    1
    24    16    18    1
    25    16    19    1
    26    15    12    1
    27     6     1   ar
    28    28    22   ar
    29     9    10    1
    30    20    21    1
@<TRIPOS>MOLECULE
*****
 28 30 0 0 0
SMALL
GASTEIGER

@<TRIPOS>ATOM
      1 C          63.0643   89.5446   12.0580 C.ar    1  UNL1        0.0942
      2 C          63.1972   90.4565   10.8745 C.ar    1  UNL1        0.1078
      3 N          64.0210   91.7057   10.9790 N.ar    1  UNL1       -0.2119
      4 C          64.7119   92.0428   12.2671 C.ar    1  UNL1        0.2206
      5 N          64.5790   91.1309   13.4505 N.ar    1  UNL1       -0.2094
      6 C          63.7552   89.8818   13.3460 C.ar    1  UNL1        0.1613
      7 O          60.7434   88.3844   11.9266 O.2     1  UNL1       -0.2700
      8 C          62.2405   88.2954   11.9534 C.2     1  UNL1        0.2488
      9 N          62.9138   86.9572   11.8758 N.am    1  UNL1       -0.3008
     10 H          63.8964   86.8989   11.8934 H       1  UNL1        0.1497
     11 C          62.0899   85.7080   11.7712 C.3     1  UNL1        0.0896
     12 C          62.7316   84.4196   11.3493 C.3     1  UNL1        0.0196
     13 C          62.7851   83.0285   11.9079 C.3     1  UNL1        0.0017
     14 C          63.6391   82.5974   10.7526 C.3     1  UNL1        0.0001
     15 C          63.5856   83.9885   10.1940 C.3     1  UNL1        0.0017
     16 C          63.6222   88.9697   14.5295 C.3     1  UNL1        0.4351
     17 F          63.4893   88.0578   15.7129 F       1  UNL1       -0.1644
     18 F          62.5186   89.8306   15.0688 F       1  UNL1       -0.1644
     19 F          64.7258   88.1089   13.9901 F       1  UNL1       -0.1644
     20 N          65.5357   93.2921   12.3716 N.pl3   1  UNL1       -0.2825
     21 H          65.5391   93.8109   13.2082 H       1  UNL1        0.1551
     22 C          66.3544   93.7507   11.2014 C.ar    1  UNL1        0.0513
     23 C          66.3278   95.1919   10.7863 C.ar    1  UNL1        0.0147
     24 C          67.1465   95.6505    9.6160 C.ar    1  UNL1        0.0021
     25 C          67.9917   94.6679    8.8608 C.ar    1  UNL1        0.0115
     26 C          68.0182   93.2267    9.2759 C.ar    1  UNL1        0.0589
     27 CL         68.8633   92.2442    8.5208 Cl      1  UNL1       -0.0822
     28 C          67.1996   92.7681   10.4461 C.ar    1  UNL1        0.0261
@<TRIPOS>BOND
     1     7     8    2
     2     8     9   am
     3     9    11    1
     4    11    12    1
     5    12    13    1
     6    13    14    1
     7    14    15    1
     8     8     1    1
     9     1     2   ar
    10     2     3   ar
    11     3     4   ar
    12     4    20    1
    13    20    22    1
    14    22    23   ar
    15    23    24   ar
    16    24    25   ar
    17    25    26   ar
    18    26    27    1
    19    26    28   ar
    20     4     5   ar
    21     5     6   ar
    22     6    16    1
    23    16    17    1
    24    16    18    1
    25    16    19    1
    26    15    12    1
    27     6     1   ar
    28    28    22   ar
    29     9    10    1
    30    20    21    1
@<TRIPOS>MOLECULE
*****
 28 30 0 0 0
SMALL
GASTEIGER

@<TRIPOS>ATOM
      1 C          64.3742   89.7019   14.1138 C.ar    1  UNL1        0.0942
      2 C          65.5172   90.4880   14.6843 C.ar    1  UNL1        0.1078
      3 N          65.9223   91.7874   14.0539 N.ar    1  UNL1       -0.2119
      4 C          65.1844   92.3007   12.8531 C.ar    1  UNL1        0.2206
      5 N          64.0413   91.5146   12.2827 N.ar    1  UNL1       -0.2094
      6 C          63.6362   90.2152   12.9130 C.ar    1  UNL1        0.1613
      7 O          63.2112   88.4009   16.0387 O.2     1  UNL1       -0.2700
      8 C          63.9690   88.4024   14.7442 C.2     1  UNL1        0.2488
      9 N          64.3217   87.1046   14.0801 N.am    1  UNL1       -0.3008
     10 H          64.8191   87.1056   13.2304 H       1  UNL1        0.1497
     11 C          63.9165   85.8051   14.7104 C.3     1  UNL1        0.0896
     12 C          63.4140   84.6807   13.8542 C.3     1  UNL1        0.0196
     13 C          63.1577   83.2182   14.0671 C.3     1  UNL1        0.0017
     14 C          62.7032   83.0905   12.6433 C.3     1  UNL1        0.0001
     15 C          62.9595   84.5531   12.4304 C.3     1  UNL1        0.0017
     16 C          62.4931   89.4291   12.3426 C.3     1  UNL1        0.4351
     17 F          61.3501   88.6429   11.7721 F       1  UNL1       -0.1644
     18 F          63.4325   88.7583   11.3847 F       1  UNL1       -0.1644
     19 F          61.5537   90.0998   13.3005 F       1  UNL1       -0.1644
     20 N          65.5895   93.6002   12.2228 N.pl3   1  UNL1       -0.2825
     21 H          65.2623   94.4509   12.5948 H       1  UNL1        0.1551
     22 C          66.4933   93.6035   11.0257 C.ar    1  UNL1        0.0513
     23 C          67.2972   92.3826   10.6895 C.ar    1  UNL1        0.0147
     24 C          68.2010   92.3859    9.4923 C.ar    1  UNL1        0.0021
     25 C          68.3008   93.6101    8.6313 C.ar    1  UNL1        0.0115
     26 C          67.4969   94.8310    8.9675 C.ar    1  UNL1        0.0589
     27 CL         67.5966   96.0552    8.1065 Cl      1  UNL1       -0.0822
     28 C          66.5931   94.8277   10.1646 C.ar    1  UNL1        0.0261
@<TRIPOS>BOND
     1     7     8    2
     2     8     9   am
     3     9    11    1
     4    11    12    1
     5    12    13    1
     6    13    14    1
     7    14    15    1
     8     8     1    1
     9     1     2   ar
    10     2     3   ar
    11     3     4   ar
    12     4    20    1
    13    20    22    1
    14    22    23   ar
    15    23    24   ar
    16    24    25   ar
    17    25    26   ar
    18    26    27    1
    19    26    28   ar
    20     4     5   ar
    21     5     6   ar
    22     6    16    1
    23    16    17    1
    24    16    18    1
    25    16    19    1
    26    15    12    1
    27     6     1   ar
    28    28    22   ar
    29     9    10    1
    30    20    21    1
@<TRIPOS>MOLECULE
*****
 28 30 0 0 0
SMALL
GASTEIGER

@<TRIPOS>ATOM
      1 C          63.4380   90.1100   12.0489 C.ar    1  UNL1        0.0942
      2 C          63.7048   91.0147   10.8826 C.ar    1  UNL1        0.1078
      3 N          64.5354   92.2501   11.0664 N.ar    1  UNL1       -0.2119
      4 C          65.0993   92.5807   12.4165 C.ar    1  UNL1        0.2206
      5 N          64.8325   91.6760   13.5828 N.ar    1  UNL1       -0.2094
      6 C          64.0018   90.4407   13.3990 C.ar    1  UNL1        0.1613
      7 O          63.1089   87.5523   12.3652 O.2     1  UNL1       -0.2700
      8 C          62.6073   88.8746   11.8651 C.2     1  UNL1        0.2488
      9 N          61.2751   88.9614   11.1814 N.am    1  UNL1       -0.3008
     10 H          60.9459   89.8293   10.8532 H       1  UNL1        0.1497
     11 C          60.4444   87.7260   10.9976 C.3     1  UNL1        0.0896
     12 C          60.3863   87.0536    9.6580 C.3     1  UNL1        0.0196
     13 C          61.2813   86.1173    8.9015 C.3     1  UNL1        0.0017
     14 C          60.3042   86.1028    7.7635 C.3     1  UNL1        0.0001
     15 C          59.4092   87.0391    8.5200 C.3     1  UNL1        0.0017
     16 C          63.7350   89.5359   14.5653 C.3     1  UNL1        0.4351
     17 F          63.4681   88.6312   15.7316 F       1  UNL1       -0.1644
     18 F          62.3692   90.1366   14.7188 F       1  UNL1       -0.1644
     19 F          65.1008   88.9351   14.4118 F       1  UNL1       -0.1644
     20 N          65.9300   93.8162   12.6003 N.pl3   1  UNL1       -0.2825
     21 H          66.1708   94.1172   13.5062 H       1  UNL1        0.1551
     22 C          66.3937   94.5930   11.4039 C.ar    1  UNL1        0.0513
     23 C          66.1848   96.0773   11.3463 C.ar    1  UNL1        0.0147
     24 C          66.6486   96.8541   10.1498 C.ar    1  UNL1        0.0021
     25 C          67.3211   96.1466    9.0109 C.ar    1  UNL1        0.0115
     26 C          67.5300   94.6623    9.0684 C.ar    1  UNL1        0.0589
     27 CL         68.2025   93.9549    7.9296 Cl      1  UNL1       -0.0822
     28 C          67.0663   93.8855   10.2649 C.ar    1  UNL1        0.0261
@<TRIPOS>BOND
     1     7     8    2
     2     8     9   am
     3     9    11    1
     4    11    12    1
     5    12    13    1
     6    13    14    1
     7    14    15    1
     8     8     1    1
     9     1     2   ar
    10     2     3   ar
    11     3     4   ar
    12     4    20    1
    13    20    22    1
    14    22    23   ar
    15    23    24   ar
    16    24    25   ar
    17    25    26   ar
    18    26    27    1
    19    26    28   ar
    20     4     5   ar
    21     5     6   ar
    22     6    16    1
    23    16    17    1
    24    16    18    1
    25    16    19    1
    26    15    12    1
    27     6     1   ar
    28    28    22   ar
    29     9    10    1
    30    20    21    1
@<TRIPOS>MOLECULE
*****
 28 30 0 0 0
SMALL
GASTEIGER

@<TRIPOS>ATOM
      1 C          63.8753   88.9158   14.0057 C.ar    1  UNL1        0.0942
      2 C          64.2156   87.5626   14.5560 C.ar    1  UNL1        0.1078
      3 N          63.8586   86.3274   13.7834 N.ar    1  UNL1       -0.2119
      4 C          63.1613   86.4455   12.4606 C.ar    1  UNL1        0.2206
      5 N          62.8210   87.7988   11.9103 N.ar    1  UNL1       -0.2094
      6 C          63.1780   89.0340   12.6829 C.ar    1  UNL1        0.1613
      7 O          63.2625   90.7218   15.7701 O.2     1  UNL1       -0.2700
      8 C          64.2323   90.1511   14.7783 C.2     1  UNL1        0.2488
      9 N          65.5591   90.8156   14.5590 N.am    1  UNL1       -0.3008
     10 H          66.1956   90.4410   13.9081 H       1  UNL1        0.1497
     11 C          65.9161   92.0508   15.3316 C.3     1  UNL1        0.0896
     12 C          67.3362   92.5328   15.3609 C.3     1  UNL1        0.0196
     13 C          68.0813   93.5922   16.1176 C.3     1  UNL1        0.0017
     14 C          69.3446   93.2145   15.4024 C.3     1  UNL1        0.0001
     15 C          68.5995   92.1552   14.6457 C.3     1  UNL1        0.0017
     16 C          62.8377   90.3873   12.1326 C.3     1  UNL1        0.4351
     17 F          62.4975   91.7406   11.5824 F       1  UNL1       -0.1644
     18 F          64.2746   90.5953   11.7556 F       1  UNL1       -0.1644
     19 F          61.4009   90.1794   12.5097 F       1  UNL1       -0.1644
     20 N          62.8043   85.2103   11.6880 N.pl3   1  UNL1       -0.2825
     21 H          62.8637   84.3266   12.1178 H       1  UNL1        0.1551
     22 C          62.3570   85.3215   10.2606 C.ar    1  UNL1        0.0513
     23 C          63.2251   84.7898    9.1590 C.ar    1  UNL1        0.0147
     24 C          62.7776   84.9011    7.7315 C.ar    1  UNL1        0.0021
     25 C          61.4622   85.5441    7.4058 C.ar    1  UNL1        0.0115
     26 C          60.5941   86.0758    8.5075 C.ar    1  UNL1        0.0589
     27 CL         59.2787   86.7188    8.1818 Cl      1  UNL1       -0.0822
     28 C          61.0415   85.9646    9.9349 C.ar    1  UNL1        0.0261
@<TRIPOS>BOND
     1     7     8    2
     2     8     9   am
     3     9    11    1
     4    11    12    1
     5    12    13    1
     6    13    14    1
     7    14    15    1
     8     8     1    1
     9     1     2   ar
    10     2     3   ar
    11     3     4   ar
    12     4    20    1
    13    20    22    1
    14    22    23   ar
    15    23    24   ar
    16    24    25   ar
    17    25    26   ar
    18    26    27    1
    19    26    28   ar
    20     4     5   ar
    21     5     6   ar
    22     6    16    1
    23    16    17    1
    24    16    18    1
    25    16    19    1
    26    15    12    1
    27     6     1   ar
    28    28    22   ar
    29     9    10    1
    30    20    21    1
@<TRIPOS>MOLECULE
*****
 28 30 0 0 0
SMALL
GASTEIGER

@<TRIPOS>ATOM
      1 C          63.6572   89.4217   12.8889 C.ar    1  UNL1        0.0942
      2 C          63.8200   88.1330   13.6389 C.ar    1  UNL1        0.1078
      3 N          63.2578   86.8614   13.0758 N.ar    1  UNL1       -0.2119
      4 C          62.5328   86.8786   11.7628 C.ar    1  UNL1        0.2206
      5 N          62.3699   88.1674   11.0128 N.ar    1  UNL1       -0.2094
      6 C          62.9321   89.4389   11.5758 C.ar    1  UNL1        0.1613
      7 O          63.5631   91.3455   14.6325 O.2     1  UNL1       -0.2700
      8 C          64.2194   90.6934   13.4519 C.2     1  UNL1        0.2488
      9 N          65.4378   91.3129   12.8342 N.am    1  UNL1       -0.3008
     10 H          65.8686   90.8849   12.0593 H       1  UNL1        0.1497
     11 C          66.0000   92.5845   13.3972 C.3     1  UNL1        0.0896
     12 C          66.9478   92.5359   14.5588 C.3     1  UNL1        0.0196
     13 C          68.4257   92.3318   14.7141 C.3     1  UNL1        0.0017
     14 C          68.2881   92.4672   16.2016 C.3     1  UNL1        0.0001
     15 C          66.8102   92.6714   16.0463 C.3     1  UNL1        0.0017
     16 C          62.7693   90.7278   10.8258 C.3     1  UNL1        0.4351
     17 F          62.6064   92.0165   10.0759 F       1  UNL1       -0.1644
     18 F          61.4577   90.9628   11.5146 F       1  UNL1       -0.1644
     19 F          64.0809   90.4927   10.1370 F       1  UNL1       -0.1644
     20 N          61.9706   85.6070   11.1998 N.pl3   1  UNL1       -0.2825
     21 H          61.0848   85.6081   10.7702 H       1  UNL1        0.1551
     22 C          62.7580   84.3336   11.2914 C.ar    1  UNL1        0.0513
     23 C          63.6750   83.9366   10.1727 C.ar    1  UNL1        0.0147
     24 C          64.4624   82.6632   10.2644 C.ar    1  UNL1        0.0021
     25 C          64.3328   81.7867   11.4748 C.ar    1  UNL1        0.0115
     26 C          63.4158   82.1837   12.5935 C.ar    1  UNL1        0.0589
     27 CL         63.2862   81.3072   13.8038 Cl      1  UNL1       -0.0822
     28 C          62.6284   83.4571   12.5018 C.ar    1  UNL1        0.0261
@<TRIPOS>BOND
     1     7     8    2
     2     8     9   am
     3     9    11    1
     4    11    12    1
     5    12    13    1
     6    13    14    1
     7    14    15    1
     8     8     1    1
     9     1     2   ar
    10     2     3   ar
    11     3     4   ar
    12     4    20    1
    13    20    22    1
    14    22    23   ar
    15    23    24   ar
    16    24    25   ar
    17    25    26   ar
    18    26    27    1
    19    26    28   ar
    20     4     5   ar
    21     5     6   ar
    22     6    16    1
    23    16    17    1
    24    16    18    1
    25    16    19    1
    26    15    12    1
    27     6     1   ar
    28    28    22   ar
    29     9    10    1
    30    20    21    1
@<TRIPOS>MOLECULE
*****
 28 30 0 0 0
SMALL
GASTEIGER

@<TRIPOS>ATOM
      1 C          63.5634   86.3305   13.5947 C.ar    1  UNL1        0.0942
      2 C          64.1942   87.3332   14.5147 C.ar    1  UNL1        0.1078
      3 N          64.1643   88.7922   14.1677 N.ar    1  UNL1       -0.2119
      4 C          63.5036   89.2484   12.9007 C.ar    1  UNL1        0.2206
      5 N          62.8728   88.2457   11.9807 N.ar    1  UNL1       -0.2094
      6 C          62.9027   86.7867   12.3277 C.ar    1  UNL1        0.1613
      7 O          64.8716   84.0967   13.8165 O.2     1  UNL1       -0.2700
      8 C          63.5932   84.8714   13.9417 C.2     1  UNL1        0.2488
      9 N          62.3447   84.1871   14.4139 N.am    1  UNL1       -0.3008
     10 H          61.5057   84.6956   14.4960 H       1  UNL1        0.1497
     11 C          62.3746   82.7280   14.7608 C.3     1  UNL1        0.0896
     12 C          62.4928   81.7009   13.6741 C.3     1  UNL1        0.0196
     13 C          62.7016   81.7469   12.1894 C.3     1  UNL1        0.0017
     14 C          62.6600   80.2484   12.1372 C.3     1  UNL1        0.0001
     15 C          62.4512   80.2024   13.6218 C.3     1  UNL1        0.0017
     16 C          62.2718   85.7839   11.4077 C.3     1  UNL1        0.4351
     17 F          61.6409   84.7811   10.4877 F       1  UNL1       -0.1644
     18 F          60.9365   86.4358   11.6127 F       1  UNL1       -0.1644
     19 F          63.6070   85.1319   11.2026 F       1  UNL1       -0.1644
     20 N          63.4738   90.7075   12.5538 N.pl3   1  UNL1       -0.2825
     21 H          62.7054   91.0816   12.0651 H       1  UNL1        0.1551
     22 C          64.6147   91.5964   12.9513 C.ar    1  UNL1        0.0513
     23 C          65.3256   92.4137   11.9137 C.ar    1  UNL1        0.0147
     24 C          66.4665   93.3027   12.3113 C.ar    1  UNL1        0.0021
     25 C          66.8965   93.3743   13.7465 C.ar    1  UNL1        0.0115
     26 C          66.1857   92.5571   14.7842 C.ar    1  UNL1        0.0589
     27 CL         66.6157   92.6288   16.2194 Cl      1  UNL1       -0.0822
     28 C          65.0448   91.6681   14.3866 C.ar    1  UNL1        0.0261
@<TRIPOS>BOND
     1     7     8    2
     2     8     9   am
     3     9    11    1
     4    11    12    1
     5    12    13    1
     6    13    14    1
     7    14    15    1
     8     8     1    1
     9     1     2   ar
    10     2     3   ar
    11     3     4   ar
    12     4    20    1
    13    20    22    1
    14    22    23   ar
    15    23    24   ar
    16    24    25   ar
    17    25    26   ar
    18    26    27    1
    19    26    28   ar
    20     4     5   ar
    21     5     6   ar
    22     6    16    1
    23    16    17    1
    24    16    18    1
    25    16    19    1
    26    15    12    1
    27     6     1   ar
    28    28    22   ar
    29     9    10    1
    30    20    21    1
