@<TRIPOS>MOLECULE
*****
 44 47 0 0 0
SMALL
GASTEIGER

@<TRIPOS>ATOM
      1 C          63.2912   87.8614   12.1627 C.3     1  UNL1        0.0776
      2 C          62.2926   86.7425   12.1386 C.3     1  UNL1        0.0899
      3 C          60.9303   86.9799    9.9391 C.2     1  UNL1        0.4014
      4 O          62.1949   86.8535    9.1423 O.2     1  UNL1       -0.2264
      5 N          60.9792   86.9244   11.4372 N.am    1  UNL1       -0.2711
      6 H          60.1492   87.0074   11.9602 H       1  UNL1        0.1527
      7 O          59.6170   87.1618    9.2377 O.3     1  UNL1       -0.4419
      8 C          59.9623   89.2361    8.9578 C.3     1  UNL1        0.0437
      9 C          59.5104   88.1079    8.0786 C.3     1  UNL1        0.1378
     10 C          59.0585   86.9797    7.1994 C.3     1  UNL1        0.0437
     11 C          59.4038   89.0539    6.9194 C.3     1  UNL1        0.0437
     12 C          62.6073   85.4416   12.8159 C.3     1  UNL1        0.0469
     13 C          62.9708   84.2385   11.9972 C.ar    1  UNL1       -0.0205
     14 C          63.6213   84.4121   10.6568 C.ar    1  UNL1       -0.0042
     15 C          63.9848   83.2090    9.8380 C.ar    1  UNL1       -0.0003
     16 C          63.6979   81.8322   10.3597 C.ar    1  UNL1       -0.0000
     17 C          63.0474   81.6586   11.7002 C.ar    1  UNL1       -0.0003
     18 C          62.7606   80.2818   12.2219 C.ar    1  UNL1       -0.0000
     19 C          62.1101   80.1082   13.5623 C.ar    1  UNL1       -0.0000
     20 C          61.7466   81.3113   14.3810 C.ar    1  UNL1       -0.0000
     21 C          62.0335   82.6881   13.8593 C.ar    1  UNL1       -0.0003
     22 C          62.6839   82.8617   12.5189 C.ar    1  UNL1       -0.0039
     23 S          62.8528   89.2646   11.8640 S.3     1  UNL1       -0.1362
     24 C          62.5918   90.2239   12.9871 C.3     1  UNL1        0.0864
     25 C          63.5755   90.3463   14.1129 C.3     1  UNL1        0.1575
     26 C          64.9204   90.9646   13.8699 C.2     1  UNL1        0.2414
     27 O          66.0644   90.6573   14.7900 O.2     1  UNL1       -0.2733
     28 N          65.1211   91.8903   12.7068 N.am    1  UNL1       -0.2990
     29 H          64.3702   92.0920   12.1029 H       1  UNL1        0.1498
     30 C          66.4660   92.5087   12.4638 C.3     1  UNL1        0.1179
     31 C          66.7327   93.2451   11.1845 C.ar    1  UNL1        0.0166
     32 C          67.6294   92.6413   10.1446 C.ar    1  UNL1        0.0005
     33 C          67.8962   93.3777    8.8653 C.ar    1  UNL1        0.0204
     34 C          67.2663   94.7177    8.6259 C.ar    1  UNL1        0.0989
     35 N          66.3696   95.3215    9.6658 N.ar    1  UNL1       -0.2426
     36 C          66.1028   94.5852   10.9451 C.ar    1  UNL1        0.0962
     37 N          63.2144   89.8502   15.4816 N.pl3   1  UNL1       -0.3263
     38 H          62.8426   90.4720   16.1483 H       1  UNL1        0.1472
     39 C          63.4197   88.4068   15.8346 C.ar    1  UNL1        0.0449
     40 C          62.6844   87.8069   16.9963 C.ar    1  UNL1        0.0143
     41 C          62.8897   86.3636   17.3493 C.ar    1  UNL1        0.0013
     42 C          63.8302   85.5202   16.5407 C.ar    1  UNL1        0.0001
     43 C          64.5654   86.1201   15.3790 C.ar    1  UNL1        0.0013
     44 C          64.3602   87.5634   15.0259 C.ar    1  UNL1        0.0143
@<TRIPOS>BOND
     1     8     9    1
     2     9    10    1
     3     9    11    1
     4     9     7    1
     5     7     3    1
     6     3     4    2
     7     3     5   am
     8     5     2    1
     9     2     1    1
    10     1    23    1
    11    23    24    1
    12    24    25    1
    13    25    37    1
    14    37    39    1
    15    39    40   ar
    16    40    41   ar
    17    41    42   ar
    18    42    43   ar
    19    43    44   ar
    20    25    26    1
    21    26    27    2
    22    26    28   am
    23    28    30    1
    24    30    31    1
    25    31    32   ar
    26    32    33   ar
    27    33    34   ar
    28    34    35   ar
    29    35    36   ar
    30     2    12    1
    31    12    13    1
    32    13    14   ar
    33    14    15   ar
    34    15    16   ar
    35    16    17   ar
    36    17    18   ar
    37    18    19   ar
    38    19    20   ar
    39    20    21   ar
    40    21    22   ar
    41    44    39   ar
    42    36    31   ar
    43    22    13   ar
    44    22    17   ar
    45     5     6    1
    46    37    38    1
    47    28    29    1
@<TRIPOS>MOLECULE
*****
 44 47 0 0 0
SMALL
GASTEIGER

@<TRIPOS>ATOM
      1 C          63.2953   88.4136   11.7858 C.3     1  UNL1        0.0776
      2 C          62.4512   87.2111   11.4835 C.3     1  UNL1        0.0899
      3 C          60.0735   87.7269   10.5720 C.2     1  UNL1        0.4014
      4 O          59.6459   88.1720   11.9392 O.2     1  UNL1       -0.2264
      5 N          61.4761   87.2465   10.3442 N.am    1  UNL1       -0.2711
      6 H          61.7567   86.9544    9.4469 H       1  UNL1        0.1527
      7 O          59.0985   87.7622    9.4327 O.3     1  UNL1       -0.4419
      8 C          59.0335   87.2525    7.3745 C.3     1  UNL1        0.0437
      9 C          59.4626   88.4592    8.1553 C.3     1  UNL1        0.1378
     10 C          59.8916   89.6660    8.9361 C.3     1  UNL1        0.0437
     11 C          59.8267   89.1562    6.8780 C.3     1  UNL1        0.0437
     12 C          62.5820   85.9733   12.3206 C.3     1  UNL1        0.0469
     13 C          62.9447   84.6677   11.6772 C.ar    1  UNL1       -0.0205
     14 C          63.4984   84.6468   10.2833 C.ar    1  UNL1       -0.0042
     15 C          63.8611   83.3412    9.6399 C.ar    1  UNL1       -0.0003
     16 C          63.6701   82.0566   10.3904 C.ar    1  UNL1       -0.0000
     17 C          63.1164   82.0775   11.7844 C.ar    1  UNL1       -0.0003
     18 C          62.9254   80.7929   12.5349 C.ar    1  UNL1       -0.0000
     19 C          62.3718   80.8139   13.9288 C.ar    1  UNL1       -0.0000
     20 C          62.0091   82.1195   14.5721 C.ar    1  UNL1       -0.0000
     21 C          62.2000   83.4041   13.8216 C.ar    1  UNL1       -0.0003
     22 C          62.7537   83.3831   12.4278 C.ar    1  UNL1       -0.0039
     23 S          62.7134   89.7902   11.6566 S.3     1  UNL1       -0.1362
     24 C          63.5914   90.9420   11.2663 C.3     1  UNL1        0.0864
     25 C          64.3651   91.6844   12.3153 C.3     1  UNL1        0.1575
     26 C          64.5400   91.0884   13.6806 C.2     1  UNL1        0.2414
     27 O          65.9176   90.8565   14.2268 O.2     1  UNL1       -0.2733
     28 N          63.3374   90.7243   14.4997 N.am    1  UNL1       -0.2990
     29 H          62.4332   90.8765   14.1412 H       1  UNL1        0.1498
     30 C          63.5123   90.1283   15.8651 C.3     1  UNL1        0.1179
     31 C          63.5716   88.6386   16.0312 C.ar    1  UNL1        0.0166
     32 C          64.3062   87.8007   15.0271 C.ar    1  UNL1        0.0005
     33 C          64.3656   86.3111   15.1931 C.ar    1  UNL1        0.0204
     34 C          63.6903   85.6595   16.3633 C.ar    1  UNL1        0.0989
     35 N          62.9556   86.4974   17.3673 N.ar    1  UNL1       -0.2426
     36 C          62.8963   87.9870   17.2013 C.ar    1  UNL1        0.0962
     37 N          64.9638   93.0228   11.9988 N.pl3   1  UNL1       -0.3263
     38 H          64.6049   93.8354   12.4233 H       1  UNL1        0.1472
     39 C          66.1094   93.1232   11.0357 C.ar    1  UNL1        0.0449
     40 C          67.1577   92.0508   11.0027 C.ar    1  UNL1        0.0143
     41 C          68.3033   92.1512   10.0397 C.ar    1  UNL1        0.0013
     42 C          68.4005   93.3239    9.1095 C.ar    1  UNL1        0.0001
     43 C          67.3522   94.3963    9.1425 C.ar    1  UNL1        0.0013
     44 C          66.2067   94.2959   10.1056 C.ar    1  UNL1        0.0143
@<TRIPOS>BOND
     1     8     9    1
     2     9    10    1
     3     9    11    1
     4     9     7    1
     5     7     3    1
     6     3     4    2
     7     3     5   am
     8     5     2    1
     9     2     1    1
    10     1    23    1
    11    23    24    1
    12    24    25    1
    13    25    37    1
    14    37    39    1
    15    39    40   ar
    16    40    41   ar
    17    41    42   ar
    18    42    43   ar
    19    43    44   ar
    20    25    26    1
    21    26    27    2
    22    26    28   am
    23    28    30    1
    24    30    31    1
    25    31    32   ar
    26    32    33   ar
    27    33    34   ar
    28    34    35   ar
    29    35    36   ar
    30     2    12    1
    31    12    13    1
    32    13    14   ar
    33    14    15   ar
    34    15    16   ar
    35    16    17   ar
    36    17    18   ar
    37    18    19   ar
    38    19    20   ar
    39    20    21   ar
    40    21    22   ar
    41    44    39   ar
    42    36    31   ar
    43    22    13   ar
    44    22    17   ar
    45     5     6    1
    46    37    38    1
    47    28    29    1
@<TRIPOS>MOLECULE
*****
 44 47 0 0 0
SMALL
GASTEIGER

@<TRIPOS>ATOM
      1 C          62.4345   90.8261   12.1434 C.3     1  UNL1        0.0776
      2 C          63.8305   90.5989   12.6432 C.3     1  UNL1        0.0899
      3 C          65.0348   92.5167   11.3697 C.2     1  UNL1        0.4014
      4 O          64.2483   92.1906   10.1348 O.2     1  UNL1       -0.2264
      5 N          64.8259   91.7209   12.6239 N.am    1  UNL1       -0.2711
      6 H          65.3421   91.9349   13.4344 H       1  UNL1        0.1527
      7 O          66.0302   93.6386   11.3505 O.3     1  UNL1       -0.4419
      8 C          66.3109   95.1970    9.9388 C.3     1  UNL1        0.0437
      9 C          66.9112   93.8392   10.1531 C.3     1  UNL1        0.1378
     10 C          67.5115   92.4814   10.3674 C.3     1  UNL1        0.0437
     11 C          67.7922   94.0397    8.9558 C.3     1  UNL1        0.0437
     12 C          64.2310   89.2497   13.1621 C.3     1  UNL1        0.0469
     13 C          63.8427   88.8346   14.5503 C.ar    1  UNL1       -0.0205
     14 C          63.4577   89.8717   15.5632 C.ar    1  UNL1       -0.0042
     15 C          63.0695   89.4566   16.9514 C.ar    1  UNL1       -0.0003
     16 C          63.0663   88.0043   17.3266 C.ar    1  UNL1       -0.0000
     17 C          63.4513   86.9671   16.3136 C.ar    1  UNL1       -0.0003
     18 C          63.4480   85.5148   16.6888 C.ar    1  UNL1       -0.0000
     19 C          63.8330   84.4777   15.6759 C.ar    1  UNL1       -0.0000
     20 C          64.2212   84.8928   14.2878 C.ar    1  UNL1       -0.0000
     21 C          64.2245   86.3451   13.9125 C.ar    1  UNL1       -0.0003
     22 C          63.8395   87.3822   14.9255 C.ar    1  UNL1       -0.0039
     23 S          61.6294   89.6747   11.6177 S.3     1  UNL1       -0.1362
     24 C          61.2203   89.6425   10.1749 C.3     1  UNL1        0.0864
     25 C          60.4716   88.4607    9.6338 C.3     1  UNL1        0.1575
     26 C          59.7276   88.5742    8.3363 C.2     1  UNL1        0.2414
     27 O          58.7845   87.4866    7.9150 O.2     1  UNL1       -0.2733
     28 N          59.9266   89.7753    7.4602 N.am    1  UNL1       -0.2990
     29 H          60.5456   90.4892    7.7367 H       1  UNL1        0.1498
     30 C          59.1826   89.8888    6.1627 C.3     1  UNL1        0.1179
     31 C          59.6355   90.8692    5.1216 C.ar    1  UNL1        0.0166
     32 C          61.0740   90.9019    4.6977 C.ar    1  UNL1        0.0005
     33 C          61.5269   91.8823    3.6567 C.ar    1  UNL1        0.0204
     34 C          60.5414   92.8299    3.0396 C.ar    1  UNL1        0.0989
     35 N          59.1029   92.7971    3.4636 N.ar    1  UNL1       -0.2426
     36 C          58.6500   91.8168    4.5046 C.ar    1  UNL1        0.0962
     37 N          60.4670   87.1655   10.3903 N.pl3   1  UNL1       -0.3263
     38 H          59.7694   86.9905   11.0625 H       1  UNL1        0.1472
     39 C          61.5254   86.1367   10.1225 C.ar    1  UNL1        0.0449
     40 C          61.9686   85.2138   11.2187 C.ar    1  UNL1        0.0143
     41 C          63.0269   84.1851   10.9510 C.ar    1  UNL1        0.0013
     42 C          63.6420   84.0794    9.5871 C.ar    1  UNL1        0.0001
     43 C          63.1988   85.0023    8.4908 C.ar    1  UNL1        0.0013
     44 C          62.1405   86.0310    8.7585 C.ar    1  UNL1        0.0143
@<TRIPOS>BOND
     1     8     9    1
     2     9    10    1
     3     9    11    1
     4     9     7    1
     5     7     3    1
     6     3     4    2
     7     3     5   am
     8     5     2    1
     9     2     1    1
    10     1    23    1
    11    23    24    1
    12    24    25    1
    13    25    37    1
    14    37    39    1
    15    39    40   ar
    16    40    41   ar
    17    41    42   ar
    18    42    43   ar
    19    43    44   ar
    20    25    26    1
    21    26    27    2
    22    26    28   am
    23    28    30    1
    24    30    31    1
    25    31    32   ar
    26    32    33   ar
    27    33    34   ar
    28    34    35   ar
    29    35    36   ar
    30     2    12    1
    31    12    13    1
    32    13    14   ar
    33    14    15   ar
    34    15    16   ar
    35    16    17   ar
    36    17    18   ar
    37    18    19   ar
    38    19    20   ar
    39    20    21   ar
    40    21    22   ar
    41    44    39   ar
    42    36    31   ar
    43    22    13   ar
    44    22    17   ar
    45     5     6    1
    46    37    38    1
    47    28    29    1
@<TRIPOS>MOLECULE
*****
 44 47 0 0 0
SMALL
GASTEIGER

@<TRIPOS>ATOM
      1 C          62.7601   88.8685   11.6050 C.3     1  UNL1        0.0776
      2 C          63.4534   88.8602   12.9351 C.3     1  UNL1        0.0899
      3 C          63.9406   87.3734   15.0092 C.2     1  UNL1        0.4014
      4 O          63.4645   88.4742   15.9101 O.2     1  UNL1       -0.2264
      5 N          63.9351   87.5664   13.5217 N.am    1  UNL1       -0.2711
      6 H          64.2476   86.8439   12.9305 H       1  UNL1        0.1527
      7 O          64.4222   86.0796   15.5958 O.3     1  UNL1       -0.4419
      8 C          64.9169   84.4872   14.2845 C.3     1  UNL1        0.0437
      9 C          63.7689   84.7881   15.2017 C.3     1  UNL1        0.1378
     10 C          62.6208   85.0891   16.1189 C.3     1  UNL1        0.0437
     11 C          63.1155   83.4967   14.8077 C.3     1  UNL1        0.0437
     12 C          63.6651   90.1457   13.6785 C.3     1  UNL1        0.0469
     13 C          64.5041   91.2322   13.0741 C.ar    1  UNL1       -0.0205
     14 C          64.3664   91.5638   11.6177 C.ar    1  UNL1       -0.0042
     15 C          65.2055   92.6504   11.0133 C.ar    1  UNL1       -0.0003
     16 C          66.1823   93.4054   11.8653 C.ar    1  UNL1       -0.0000
     17 C          66.3200   93.0738   13.3217 C.ar    1  UNL1       -0.0003
     18 C          67.2968   93.8288   14.1737 C.ar    1  UNL1       -0.0000
     19 C          67.4345   93.4972   15.6300 C.ar    1  UNL1       -0.0000
     20 C          66.5955   92.4106   16.2344 C.ar    1  UNL1       -0.0000
     21 C          65.6187   91.6556   15.3825 C.ar    1  UNL1       -0.0003
     22 C          65.4810   91.9872   13.9261 C.ar    1  UNL1       -0.0039
     23 S          61.4203   89.5277   11.4617 S.3     1  UNL1       -0.1362
     24 C          60.7910   89.6607   10.1065 C.3     1  UNL1        0.0864
     25 C          60.1509   88.4700    9.4567 C.3     1  UNL1        0.1575
     26 C          59.5342   88.5996    8.0955 C.2     1  UNL1        0.2414
     27 O          58.6949   87.4858    7.5432 O.2     1  UNL1       -0.2733
     28 N          59.7568   89.8430    7.2865 N.am    1  UNL1       -0.2990
     29 H          60.3077   90.5740    7.6490 H       1  UNL1        0.1498
     30 C          59.1401   89.9726    5.9253 C.3     1  UNL1        0.1179
     31 C          59.7071   90.9459    4.9347 C.ar    1  UNL1        0.0166
     32 C          61.1613   90.8853    4.5718 C.ar    1  UNL1        0.0005
     33 C          61.7282   91.8586    3.5812 C.ar    1  UNL1        0.0204
     34 C          60.8410   92.8924    2.9535 C.ar    1  UNL1        0.0989
     35 N          59.3869   92.9529    3.3164 N.ar    1  UNL1       -0.2426
     36 C          58.8199   91.9797    4.3070 C.ar    1  UNL1        0.0962
     37 N          60.1275   87.1496   10.1680 N.pl3   1  UNL1       -0.3263
     38 H          59.3621   86.9121   10.7399 H       1  UNL1        0.1472
     39 C          61.2702   86.1912   10.0082 C.ar    1  UNL1        0.0449
     40 C          61.9307   86.0279    8.6714 C.ar    1  UNL1        0.0143
     41 C          63.0735   85.0695    8.5115 C.ar    1  UNL1        0.0013
     42 C          63.5557   84.2744    9.6884 C.ar    1  UNL1        0.0001
     43 C          62.8952   84.4376   11.0252 C.ar    1  UNL1        0.0013
     44 C          61.7525   85.3960   11.1851 C.ar    1  UNL1        0.0143
@<TRIPOS>BOND
     1     8     9    1
     2     9    10    1
     3     9    11    1
     4     9     7    1
     5     7     3    1
     6     3     4    2
     7     3     5   am
     8     5     2    1
     9     2     1    1
    10     1    23    1
    11    23    24    1
    12    24    25    1
    13    25    37    1
    14    37    39    1
    15    39    40   ar
    16    40    41   ar
    17    41    42   ar
    18    42    43   ar
    19    43    44   ar
    20    25    26    1
    21    26    27    2
    22    26    28   am
    23    28    30    1
    24    30    31    1
    25    31    32   ar
    26    32    33   ar
    27    33    34   ar
    28    34    35   ar
    29    35    36   ar
    30     2    12    1
    31    12    13    1
    32    13    14   ar
    33    14    15   ar
    34    15    16   ar
    35    16    17   ar
    36    17    18   ar
    37    18    19   ar
    38    19    20   ar
    39    20    21   ar
    40    21    22   ar
    41    44    39   ar
    42    36    31   ar
    43    22    13   ar
    44    22    17   ar
    45     5     6    1
    46    37    38    1
    47    28    29    1
@<TRIPOS>MOLECULE
*****
 44 47 0 0 0
SMALL
GASTEIGER

@<TRIPOS>ATOM
      1 C          62.3175   89.7210   12.8829 C.3     1  UNL1        0.0776
      2 C          63.4260   89.6594   13.8916 C.3     1  UNL1        0.0899
      3 C          63.6595   87.7506   15.6386 C.2     1  UNL1        0.4014
      4 O          62.7509   88.4940   16.5723 O.2     1  UNL1       -0.2264
      5 N          63.9970   88.3332   14.2983 N.am    1  UNL1       -0.2711
      6 H          64.5934   87.8453   13.6855 H       1  UNL1        0.1527
      7 O          64.2305   86.4245   16.0453 O.3     1  UNL1       -0.4419
      8 C          64.6604   84.9600   14.5719 C.3     1  UNL1        0.0437
      9 C          63.5755   85.1543   15.5894 C.3     1  UNL1        0.1378
     10 C          62.4907   85.3486   16.6069 C.3     1  UNL1        0.0437
     11 C          62.9206   83.8842   15.1336 C.3     1  UNL1        0.0437
     12 C          63.9635   90.9238   14.4935 C.3     1  UNL1        0.0469
     13 C          65.3744   91.3480   14.2116 C.ar    1  UNL1       -0.0205
     14 C          66.4291   91.1933   15.2668 C.ar    1  UNL1       -0.0042
     15 C          67.8400   91.6175   14.9849 C.ar    1  UNL1       -0.0003
     16 C          68.1961   92.1964   13.6477 C.ar    1  UNL1       -0.0000
     17 C          67.1414   92.3511   12.5924 C.ar    1  UNL1       -0.0003
     18 C          67.4975   92.9299   11.2552 C.ar    1  UNL1       -0.0000
     19 C          66.4427   93.0846   10.2000 C.ar    1  UNL1       -0.0000
     20 C          65.0319   92.6604   10.4820 C.ar    1  UNL1       -0.0000
     21 C          64.6757   92.0815   11.8191 C.ar    1  UNL1       -0.0003
     22 C          65.7305   91.9269   12.8743 C.ar    1  UNL1       -0.0039
     23 S          62.5504   89.2379   11.4821 S.3     1  UNL1       -0.1362
     24 C          61.4569   89.3435   10.4607 C.3     1  UNL1        0.0864
     25 C          60.7069   88.1162   10.0354 C.3     1  UNL1        0.1575
     26 C          59.8814   88.1380    8.7831 C.2     1  UNL1        0.2414
     27 O          59.0417   86.9501    8.4175 O.2     1  UNL1       -0.2733
     28 N          59.8955   89.3478    7.8966 N.am    1  UNL1       -0.2990
     29 H          60.4465   90.1276    8.1365 H       1  UNL1        0.1498
     30 C          59.0700   89.3697    6.6443 C.3     1  UNL1        0.1179
     31 C          59.2623   90.4656    5.6383 C.ar    1  UNL1        0.0166
     32 C          60.6326   90.7619    5.1048 C.ar    1  UNL1        0.0005
     33 C          60.8250   91.8577    4.0988 C.ar    1  UNL1        0.0204
     34 C          59.6471   92.6572    3.6262 C.ar    1  UNL1        0.0989
     35 N          58.2768   92.3609    4.1596 N.ar    1  UNL1       -0.2426
     36 C          58.0844   91.2651    5.1657 C.ar    1  UNL1        0.0962
     37 N          60.7823   86.8669   10.8622 N.pl3   1  UNL1       -0.3263
     38 H          60.1669   86.7404   11.6201 H       1  UNL1        0.1472
     39 C          61.7956   85.8105   10.5343 C.ar    1  UNL1        0.0449
     40 C          62.2568   84.8580   11.5973 C.ar    1  UNL1        0.0143
     41 C          63.2700   83.8017   11.2695 C.ar    1  UNL1        0.0013
     42 C          63.8219   83.6978    9.8787 C.ar    1  UNL1        0.0001
     43 C          63.3607   84.6503    8.8156 C.ar    1  UNL1        0.0013
     44 C          62.3475   85.7067    9.1435 C.ar    1  UNL1        0.0143
@<TRIPOS>BOND
     1     8     9    1
     2     9    10    1
     3     9    11    1
     4     9     7    1
     5     7     3    1
     6     3     4    2
     7     3     5   am
     8     5     2    1
     9     2     1    1
    10     1    23    1
    11    23    24    1
    12    24    25    1
    13    25    37    1
    14    37    39    1
    15    39    40   ar
    16    40    41   ar
    17    41    42   ar
    18    42    43   ar
    19    43    44   ar
    20    25    26    1
    21    26    27    2
    22    26    28   am
    23    28    30    1
    24    30    31    1
    25    31    32   ar
    26    32    33   ar
    27    33    34   ar
    28    34    35   ar
    29    35    36   ar
    30     2    12    1
    31    12    13    1
    32    13    14   ar
    33    14    15   ar
    34    15    16   ar
    35    16    17   ar
    36    17    18   ar
    37    18    19   ar
    38    19    20   ar
    39    20    21   ar
    40    21    22   ar
    41    44    39   ar
    42    36    31   ar
    43    22    13   ar
    44    22    17   ar
    45     5     6    1
    46    37    38    1
    47    28    29    1
@<TRIPOS>MOLECULE
*****
 44 47 0 0 0
SMALL
GASTEIGER

@<TRIPOS>ATOM
      1 C          63.9218   86.0649   14.1268 C.3     1  UNL1        0.0776
      2 C          62.9917   85.2879   13.2430 C.3     1  UNL1        0.0899
      3 C          62.5215   83.2896   14.8355 C.2     1  UNL1        0.4014
      4 O          62.4219   84.2367   15.9944 O.2     1  UNL1       -0.2264
      5 N          62.8064   83.8152   13.4598 N.am    1  UNL1       -0.2711
      6 H          62.8718   83.1936   12.6991 H       1  UNL1        0.1527
      7 O          62.3363   81.8170   15.0522 O.3     1  UNL1       -0.4419
      8 C          60.8614   80.7383   13.9745 C.3     1  UNL1        0.0437
      9 C          62.3520   80.8788   13.8819 C.3     1  UNL1        0.1378
     10 C          63.8425   81.0193   13.7893 C.3     1  UNL1        0.0437
     11 C          62.3677   79.9407   12.7116 C.3     1  UNL1        0.0437
     12 C          62.2468   85.9835   12.1424 C.3     1  UNL1        0.0469
     13 C          62.4231   85.5398   10.7205 C.ar    1  UNL1       -0.0205
     14 C          63.6009   84.6926   10.3397 C.ar    1  UNL1       -0.0042
     15 C          63.7772   84.2489    8.9177 C.ar    1  UNL1       -0.0003
     16 C          62.7756   84.6523    7.8765 C.ar    1  UNL1       -0.0000
     17 C          61.5977   85.4995    8.2573 C.ar    1  UNL1       -0.0003
     18 C          60.5962   85.9029    7.2161 C.ar    1  UNL1       -0.0000
     19 C          59.4183   86.7500    7.5969 C.ar    1  UNL1       -0.0000
     20 C          59.2421   87.1937    9.0189 C.ar    1  UNL1       -0.0000
     21 C          60.2436   86.7903   10.0600 C.ar    1  UNL1       -0.0003
     22 C          61.4215   85.9432    9.6792 C.ar    1  UNL1       -0.0039
     23 S          64.2815   87.4788   13.7781 S.3     1  UNL1       -0.1362
     24 C          64.0724   88.5749   14.7806 C.3     1  UNL1        0.0864
     25 C          63.5327   89.9027   14.3385 C.3     1  UNL1        0.1575
     26 C          64.4163   91.1146   14.3551 C.2     1  UNL1        0.2414
     27 O          64.6741   91.8373   15.6439 O.2     1  UNL1       -0.2733
     28 N          65.0422   91.6039   13.0828 N.am    1  UNL1       -0.2990
     29 H          64.8730   91.1296   12.2368 H       1  UNL1        0.1498
     30 C          65.9259   92.8159   13.0993 C.3     1  UNL1        0.1179
     31 C          66.4750   93.3613   11.8144 C.ar    1  UNL1        0.0166
     32 C          67.2134   92.4585   10.8711 C.ar    1  UNL1        0.0005
     33 C          67.7625   93.0039    9.5862 C.ar    1  UNL1        0.0204
     34 C          67.5732   94.4521    9.2446 C.ar    1  UNL1        0.0989
     35 N          66.8347   95.3549   10.1878 N.ar    1  UNL1       -0.2426
     36 C          66.2857   94.8096   11.4727 C.ar    1  UNL1        0.0962
     37 N          62.1093   90.0186   13.8798 N.pl3   1  UNL1       -0.3263
     38 H          61.3842   90.0999   14.5408 H       1  UNL1        0.1472
     39 C          61.7905   90.0105   12.4141 C.ar    1  UNL1        0.0449
     40 C          62.8694   89.7191   11.4136 C.ar    1  UNL1        0.0143
     41 C          62.5508   89.7111    9.9478 C.ar    1  UNL1        0.0013
     42 C          61.1532   89.9945    9.4827 C.ar    1  UNL1        0.0001
     43 C          60.0743   90.2859   10.4832 C.ar    1  UNL1        0.0013
     44 C          60.3930   90.2939   11.9489 C.ar    1  UNL1        0.0143
@<TRIPOS>BOND
     1     8     9    1
     2     9    10    1
     3     9    11    1
     4     9     7    1
     5     7     3    1
     6     3     4    2
     7     3     5   am
     8     5     2    1
     9     2     1    1
    10     1    23    1
    11    23    24    1
    12    24    25    1
    13    25    37    1
    14    37    39    1
    15    39    40   ar
    16    40    41   ar
    17    41    42   ar
    18    42    43   ar
    19    43    44   ar
    20    25    26    1
    21    26    27    2
    22    26    28   am
    23    28    30    1
    24    30    31    1
    25    31    32   ar
    26    32    33   ar
    27    33    34   ar
    28    34    35   ar
    29    35    36   ar
    30     2    12    1
    31    12    13    1
    32    13    14   ar
    33    14    15   ar
    34    15    16   ar
    35    16    17   ar
    36    17    18   ar
    37    18    19   ar
    38    19    20   ar
    39    20    21   ar
    40    21    22   ar
    41    44    39   ar
    42    36    31   ar
    43    22    13   ar
    44    22    17   ar
    45     5     6    1
    46    37    38    1
    47    28    29    1
@<TRIPOS>MOLECULE
*****
 44 47 0 0 0
SMALL
GASTEIGER

@<TRIPOS>ATOM
      1 C          60.7427   89.9988   10.7529 C.3     1  UNL1        0.0776
      2 C          60.5618   88.9532    9.6928 C.3     1  UNL1        0.0899
      3 C          59.4670   88.8534    7.3387 C.2     1  UNL1        0.4014
      4 O          58.3840   87.9679    7.8799 O.2     1  UNL1       -0.2264
      5 N          60.5559   89.3460    8.2451 N.am    1  UNL1       -0.2711
      6 H          61.2668   89.9272    7.8899 H       1  UNL1        0.1527
      7 O          59.4612   89.2463    5.8911 O.3     1  UNL1       -0.4419
      8 C          57.7052   90.4355    5.8413 C.3     1  UNL1        0.0437
      9 C          59.1482   90.6599    5.4988 C.3     1  UNL1        0.1378
     10 C          60.5913   90.8843    5.1564 C.3     1  UNL1        0.0437
     11 C          58.8353   92.0734    5.1066 C.3     1  UNL1        0.0437
     12 C          60.3867   87.5147   10.0803 C.3     1  UNL1        0.0469
     13 C          61.3364   86.4768    9.5599 C.ar    1  UNL1       -0.0205
     14 C          61.5202   86.3025    8.0814 C.ar    1  UNL1       -0.0042
     15 C          62.4699   85.2646    7.5610 C.ar    1  UNL1       -0.0003
     16 C          63.2357   84.4011    8.5190 C.ar    1  UNL1       -0.0000
     17 C          63.0519   84.5754    9.9975 C.ar    1  UNL1       -0.0003
     18 C          63.8177   83.7118   10.9554 C.ar    1  UNL1       -0.0000
     19 C          63.6339   83.8862   12.4338 C.ar    1  UNL1       -0.0000
     20 C          62.6842   84.9241   12.9543 C.ar    1  UNL1       -0.0000
     21 C          61.9184   85.7876   11.9963 C.ar    1  UNL1       -0.0003
     22 C          62.1022   85.6133   10.5179 C.ar    1  UNL1       -0.0039
     23 S          62.0052   90.8076   10.8009 S.3     1  UNL1       -0.1362
     24 C          63.2100   90.2753   11.5186 C.3     1  UNL1        0.0864
     25 C          63.7500   90.9990   12.7164 C.3     1  UNL1        0.1575
     26 C          64.9048   91.9440   12.5640 C.2     1  UNL1        0.2414
     27 O          65.4414   92.6717   13.7608 O.2     1  UNL1       -0.2733
     28 N          65.5231   92.1614   11.2148 N.am    1  UNL1       -0.2990
     29 H          65.1709   91.6838   10.4292 H       1  UNL1        0.1498
     30 C          66.6779   93.1065   11.0624 C.3     1  UNL1        0.1179
     31 C          66.5299   94.3430   10.2263 C.ar    1  UNL1        0.0166
     32 C          67.2167   94.4355    8.8960 C.ar    1  UNL1        0.0005
     33 C          67.0686   95.6720    8.0598 C.ar    1  UNL1        0.0204
     34 C          66.2338   96.8160    8.5540 C.ar    1  UNL1        0.0989
     35 N          65.5469   96.7235    9.8843 N.ar    1  UNL1       -0.2426
     36 C          65.6950   95.4870   10.7204 C.ar    1  UNL1        0.0962
     37 N          63.1351   90.7776   14.0665 N.pl3   1  UNL1       -0.3263
     38 H          62.5726   91.4766   14.4718 H       1  UNL1        0.1472
     39 C          63.3773   89.4913   14.7992 C.ar    1  UNL1        0.0449
     40 C          62.8501   89.3107   16.1918 C.ar    1  UNL1        0.0143
     41 C          63.0923   88.0244   16.9245 C.ar    1  UNL1        0.0013
     42 C          63.8617   86.9188   16.2645 C.ar    1  UNL1        0.0001
     43 C          64.3889   87.0994   14.8719 C.ar    1  UNL1        0.0013
     44 C          64.1468   88.3857   14.1392 C.ar    1  UNL1        0.0143
@<TRIPOS>BOND
     1     8     9    1
     2     9    10    1
     3     9    11    1
     4     9     7    1
     5     7     3    1
     6     3     4    2
     7     3     5   am
     8     5     2    1
     9     2     1    1
    10     1    23    1
    11    23    24    1
    12    24    25    1
    13    25    37    1
    14    37    39    1
    15    39    40   ar
    16    40    41   ar
    17    41    42   ar
    18    42    43   ar
    19    43    44   ar
    20    25    26    1
    21    26    27    2
    22    26    28   am
    23    28    30    1
    24    30    31    1
    25    31    32   ar
    26    32    33   ar
    27    33    34   ar
    28    34    35   ar
    29    35    36   ar
    30     2    12    1
    31    12    13    1
    32    13    14   ar
    33    14    15   ar
    34    15    16   ar
    35    16    17   ar
    36    17    18   ar
    37    18    19   ar
    38    19    20   ar
    39    20    21   ar
    40    21    22   ar
    41    44    39   ar
    42    36    31   ar
    43    22    13   ar
    44    22    17   ar
    45     5     6    1
    46    37    38    1
    47    28    29    1
@<TRIPOS>MOLECULE
*****
 44 47 0 0 0
SMALL
GASTEIGER

@<TRIPOS>ATOM
      1 C          63.2074   88.0672   12.2564 C.3     1  UNL1        0.0776
      2 C          62.3482   86.8404   12.1743 C.3     1  UNL1        0.0899
      3 C          61.0287   86.9021    9.9371 C.2     1  UNL1        0.4014
      4 O          62.3200   86.8706    9.1745 O.2     1  UNL1       -0.2264
      5 N          61.0428   86.8870   11.4369 N.am    1  UNL1       -0.2711
      6 H          60.1952   86.9077   11.9374 H       1  UNL1        0.1527
      7 O          59.7233   86.9488    9.1998 O.3     1  UNL1       -0.4419
      8 C          59.0595   86.8556    7.1871 C.3     1  UNL1        0.0437
      9 C          59.5164   87.9516    8.1035 C.3     1  UNL1        0.1378
     10 C          59.9734   89.0476    9.0200 C.3     1  UNL1        0.0437
     11 C          59.3096   88.9544    7.0074 C.3     1  UNL1        0.0437
     12 C          62.7944   85.5670   12.8295 C.3     1  UNL1        0.0469
     13 C          63.0898   84.3570   11.9937 C.ar    1  UNL1       -0.0205
     14 C          63.7095   84.5157   10.6369 C.ar    1  UNL1       -0.0042
     15 C          64.0049   83.3057    9.8011 C.ar    1  UNL1       -0.0003
     16 C          63.6806   81.9370   10.3220 C.ar    1  UNL1       -0.0000
     17 C          63.0609   81.7782   11.6789 C.ar    1  UNL1       -0.0003
     18 C          62.7367   80.4095   12.1998 C.ar    1  UNL1       -0.0000
     19 C          62.1170   80.2508   13.5565 C.ar    1  UNL1       -0.0000
     20 C          61.8216   81.4608   14.3923 C.ar    1  UNL1       -0.0000
     21 C          62.1459   82.8295   13.8714 C.ar    1  UNL1       -0.0003
     22 C          62.7655   82.9882   12.5147 C.ar    1  UNL1       -0.0039
     23 S          62.8197   89.3061   11.5048 S.3     1  UNL1       -0.1362
     24 C          62.8678   90.6421   12.1852 C.3     1  UNL1        0.0864
     25 C          64.0076   90.9767   13.1010 C.3     1  UNL1        0.1575
     26 C          64.1840   90.2224   14.3855 C.2     1  UNL1        0.2414
     27 O          65.4884   89.5448   14.6844 O.2     1  UNL1       -0.2733
     28 N          63.0560   90.1457   15.3712 N.am    1  UNL1       -0.2990
     29 H          62.1998   90.5904   15.1751 H       1  UNL1        0.1498
     30 C          63.2324   89.3914   16.6557 C.3     1  UNL1        0.1179
     31 C          63.1361   87.8945   16.6657 C.ar    1  UNL1        0.0166
     32 C          64.0298   87.0795   15.7785 C.ar    1  UNL1        0.0005
     33 C          63.9335   85.5826   15.7885 C.ar    1  UNL1        0.0204
     34 C          62.9436   84.9008   16.6857 C.ar    1  UNL1        0.0989
     35 N          62.0499   85.7157   17.5729 N.ar    1  UNL1       -0.2426
     36 C          62.1461   87.2126   17.5629 C.ar    1  UNL1        0.0962
     37 N          64.9711   92.0656   12.7323 N.pl3   1  UNL1       -0.3263
     38 H          64.7914   92.6385   11.9521 H       1  UNL1        0.1472
     39 C          66.2085   92.2816   13.5523 C.ar    1  UNL1        0.0449
     40 C          67.5428   91.8420   13.0266 C.ar    1  UNL1        0.0143
     41 C          68.7801   92.0580   13.8465 C.ar    1  UNL1        0.0013
     42 C          68.6831   92.7135   15.1922 C.ar    1  UNL1        0.0001
     43 C          67.3488   93.1531   15.7179 C.ar    1  UNL1        0.0013
     44 C          66.1115   92.9371   14.8979 C.ar    1  UNL1        0.0143
@<TRIPOS>BOND
     1     8     9    1
     2     9    10    1
     3     9    11    1
     4     9     7    1
     5     7     3    1
     6     3     4    2
     7     3     5   am
     8     5     2    1
     9     2     1    1
    10     1    23    1
    11    23    24    1
    12    24    25    1
    13    25    37    1
    14    37    39    1
    15    39    40   ar
    16    40    41   ar
    17    41    42   ar
    18    42    43   ar
    19    43    44   ar
    20    25    26    1
    21    26    27    2
    22    26    28   am
    23    28    30    1
    24    30    31    1
    25    31    32   ar
    26    32    33   ar
    27    33    34   ar
    28    34    35   ar
    29    35    36   ar
    30     2    12    1
    31    12    13    1
    32    13    14   ar
    33    14    15   ar
    34    15    16   ar
    35    16    17   ar
    36    17    18   ar
    37    18    19   ar
    38    19    20   ar
    39    20    21   ar
    40    21    22   ar
    41    44    39   ar
    42    36    31   ar
    43    22    13   ar
    44    22    17   ar
    45     5     6    1
    46    37    38    1
    47    28    29    1
@<TRIPOS>MOLECULE
*****
 44 47 0 0 0
SMALL
GASTEIGER

@<TRIPOS>ATOM
      1 C          63.5625   86.2158   14.2317 C.3     1  UNL1        0.0776
      2 C          63.1122   85.3037   13.1294 C.3     1  UNL1        0.0899
      3 C          63.0226   83.1521   14.5829 C.2     1  UNL1        0.4014
      4 O          64.1980   83.6396   15.3770 O.2     1  UNL1       -0.2264
      5 N          62.4797   83.9840   13.4591 N.am    1  UNL1       -0.2711
      6 H          61.7082   83.6640   12.9379 H       1  UNL1        0.1527
      7 O          62.3902   81.8325   14.9125 O.3     1  UNL1       -0.4419
      8 C          60.8195   80.6980   14.0488 C.3     1  UNL1        0.0437
      9 C          62.3073   80.7588   13.8683 C.3     1  UNL1        0.1378
     10 C          63.7951   80.8195   13.6879 C.3     1  UNL1        0.0437
     11 C          62.2245   79.6851   12.8242 C.3     1  UNL1        0.0437
     12 C          63.2943   85.7111   11.6973 C.3     1  UNL1        0.0469
     13 C          62.1067   86.1186   10.8766 C.ar    1  UNL1       -0.0205
     14 C          61.0077   86.9284   11.4983 C.ar    1  UNL1       -0.0042
     15 C          59.8201   87.3359   10.6776 C.ar    1  UNL1       -0.0003
     16 C          59.7315   86.9337    9.2353 C.ar    1  UNL1       -0.0000
     17 C          60.8305   86.1240    8.6136 C.ar    1  UNL1       -0.0003
     18 C          60.7419   85.7218    7.1712 C.ar    1  UNL1       -0.0000
     19 C          61.8409   84.9120    6.5496 C.ar    1  UNL1       -0.0000
     20 C          63.0285   84.5045    7.3703 C.ar    1  UNL1       -0.0000
     21 C          63.1171   84.9067    8.8126 C.ar    1  UNL1       -0.0003
     22 C          62.0181   85.7164    9.4342 C.ar    1  UNL1       -0.0039
     23 S          64.2607   87.5020   13.9028 S.3     1  UNL1       -0.1362
     24 C          64.1818   88.6619   14.8507 C.3     1  UNL1        0.0864
     25 C          63.6715   89.9886   14.3717 C.3     1  UNL1        0.1575
     26 C          64.5829   91.1798   14.3512 C.2     1  UNL1        0.2414
     27 O          64.7542   92.0143   15.5857 O.2     1  UNL1       -0.2733
     28 N          65.3229   91.5364   13.0962 N.am    1  UNL1       -0.2990
     29 H          65.2105   90.9886   12.2859 H       1  UNL1        0.1498
     30 C          66.2343   92.7275   13.0757 C.3     1  UNL1        0.1179
     31 C          66.5521   93.4065   11.7764 C.ar    1  UNL1        0.0166
     32 C          66.2001   94.8512   11.5794 C.ar    1  UNL1        0.0005
     33 C          66.5179   95.5302   10.2802 C.ar    1  UNL1        0.0204
     34 C          67.1877   94.7644    9.1780 C.ar    1  UNL1        0.0989
     35 N          67.5397   93.3196    9.3750 N.ar    1  UNL1       -0.2426
     36 C          67.2219   92.6407   10.6742 C.ar    1  UNL1        0.0962
     37 N          62.2497   90.1241   13.9132 N.pl3   1  UNL1       -0.3263
     38 H          61.5240   90.1959   14.5745 H       1  UNL1        0.1472
     39 C          61.9337   90.1501   12.4470 C.ar    1  UNL1        0.0449
     40 C          60.5463   90.4837   11.9847 C.ar    1  UNL1        0.0143
     41 C          60.2303   90.5098   10.5186 C.ar    1  UNL1        0.0013
     42 C          61.3017   90.2022    9.5149 C.ar    1  UNL1        0.0001
     43 C          62.6891   89.8686    9.9772 C.ar    1  UNL1        0.0013
     44 C          63.0051   89.8425   11.4433 C.ar    1  UNL1        0.0143
@<TRIPOS>BOND
     1     8     9    1
     2     9    10    1
     3     9    11    1
     4     9     7    1
     5     7     3    1
     6     3     4    2
     7     3     5   am
     8     5     2    1
     9     2     1    1
    10     1    23    1
    11    23    24    1
    12    24    25    1
    13    25    37    1
    14    37    39    1
    15    39    40   ar
    16    40    41   ar
    17    41    42   ar
    18    42    43   ar
    19    43    44   ar
    20    25    26    1
    21    26    27    2
    22    26    28   am
    23    28    30    1
    24    30    31    1
    25    31    32   ar
    26    32    33   ar
    27    33    34   ar
    28    34    35   ar
    29    35    36   ar
    30     2    12    1
    31    12    13    1
    32    13    14   ar
    33    14    15   ar
    34    15    16   ar
    35    16    17   ar
    36    17    18   ar
    37    18    19   ar
    38    19    20   ar
    39    20    21   ar
    40    21    22   ar
    41    44    39   ar
    42    36    31   ar
    43    22    13   ar
    44    22    17   ar
    45     5     6    1
    46    37    38    1
    47    28    29    1
