@<TRIPOS>MOLECULE
*****
 43 46 0 0 0
SMALL
GASTEIGER

@<TRIPOS>ATOM
      1 C          63.2773   88.1197   12.0692 C.3     1  UNL1        0.0780
      2 C          62.3660   86.9283   12.0569 C.3     1  UNL1        0.0899
      3 C          60.9933   87.1020    9.8579 C.2     1  UNL1        0.4014
      4 O          62.2664   87.1261    9.0651 O.2     1  UNL1       -0.2264
      5 N          61.0430   87.0032   11.3538 N.am    1  UNL1       -0.2711
      6 H          60.2074   86.9874   11.8742 H       1  UNL1        0.1527
      7 O          59.6704   87.1769    9.1549 O.3     1  UNL1       -0.4419
      8 C          59.0228   86.9861    7.1438 C.3     1  UNL1        0.0437
      9 C          59.4840   88.1234    8.0062 C.3     1  UNL1        0.1378
     10 C          59.9452   89.2608    8.8685 C.3     1  UNL1        0.0437
     11 C          59.2977   89.0699    6.8576 C.3     1  UNL1        0.0437
     12 C          62.7776   85.6621   12.7477 C.3     1  UNL1        0.0469
     13 C          63.0465   84.4234   11.9456 C.ar    1  UNL1       -0.0205
     14 C          63.6127   84.5347   10.5611 C.ar    1  UNL1       -0.0042
     15 C          63.8817   83.2960    9.7590 C.ar    1  UNL1       -0.0003
     16 C          63.5844   81.9461   10.3413 C.ar    1  UNL1       -0.0000
     17 C          63.0181   81.8348   11.7259 C.ar    1  UNL1       -0.0003
     18 C          62.7208   80.4848   12.3083 C.ar    1  UNL1       -0.0000
     19 C          62.1545   80.3735   13.6928 C.ar    1  UNL1       -0.0000
     20 C          61.8856   81.6122   14.4950 C.ar    1  UNL1       -0.0000
     21 C          62.1829   82.9621   13.9126 C.ar    1  UNL1       -0.0003
     22 C          62.7492   83.0734   12.5281 C.ar    1  UNL1       -0.0039
     23 S          62.8619   89.3744   12.7787 S.3     1  UNL1       -0.1298
     24 C          63.8807   90.1907   13.5173 C.3     1  UNL1        0.1281
     25 C          64.7294   91.1806   12.7757 C.2     1  UNL1        0.2325
     26 O          64.3860   91.5540   11.3641 O.2     1  UNL1       -0.2742
     27 N          65.9215   91.7971   13.4457 N.am    1  UNL1       -0.3033
     28 H          66.1469   91.5520   14.3722 H       1  UNL1        0.1495
     29 C          66.7701   92.7869   12.7042 C.3     1  UNL1        0.0941
     30 C          66.2170   94.1372   12.3565 C.3     1  UNL1        0.0492
     31 C          66.5462   94.7648   11.0345 C.ar    1  UNL1       -0.0013
     32 C          67.1294   93.9306    9.9327 C.ar    1  UNL1       -0.0011
     33 C          67.4585   94.5583    8.6107 C.ar    1  UNL1        0.0204
     34 C          67.2046   96.0202    8.3906 C.ar    1  UNL1        0.0989
     35 N          66.6215   96.8544    9.4924 N.ar    1  UNL1       -0.2426
     36 C          66.2923   96.2267   10.8143 C.ar    1  UNL1        0.0946
     37 C          64.0510   90.0171   14.9975 C.3     1  UNL1        0.0463
     38 C          63.8380   88.6711   15.6242 C.ar    1  UNL1       -0.0208
     39 C          64.5135   87.4611   15.0502 C.ar    1  UNL1       -0.0042
     40 C          64.3004   86.1151   15.6769 C.ar    1  UNL1       -0.0003
     41 C          63.4119   85.9790   16.8777 C.ar    1  UNL1       -0.0000
     42 C          62.7364   87.1890   17.4517 C.ar    1  UNL1       -0.0003
     43 C          62.9494   88.5351   16.8250 C.ar    1  UNL1       -0.0042
@<TRIPOS>BOND
     1     8     9    1
     2     9    10    1
     3     9    11    1
     4     9     7    1
     5     7     3    1
     6     3     4    2
     7     3     5   am
     8     5     2    1
     9     2     1    1
    10     1    23    1
    11    23    24    1
    12    24    37    1
    13    37    38    1
    14    38    39   ar
    15    39    40   ar
    16    40    41   ar
    17    41    42   ar
    18    42    43   ar
    19    24    25    1
    20    25    26    2
    21    25    27   am
    22    27    29    1
    23    29    30    1
    24    30    31    1
    25    31    32   ar
    26    32    33   ar
    27    33    34   ar
    28    34    35   ar
    29    35    36   ar
    30     2    12    1
    31    12    13    1
    32    13    14   ar
    33    14    15   ar
    34    15    16   ar
    35    16    17   ar
    36    17    18   ar
    37    18    19   ar
    38    19    20   ar
    39    20    21   ar
    40    21    22   ar
    41    43    38   ar
    42    36    31   ar
    43    22    13   ar
    44    22    17   ar
    45     5     6    1
    46    27    28    1
@<TRIPOS>MOLECULE
*****
 43 46 0 0 0
SMALL
GASTEIGER

@<TRIPOS>ATOM
      1 C          60.7607   89.6509   11.2859 C.3     1  UNL1        0.0780
      2 C          62.0884   89.3415   11.9115 C.3     1  UNL1        0.0899
      3 C          63.7689   91.2997   12.2141 C.2     1  UNL1        0.4014
      4 O          64.1122   91.2305   10.7555 O.2     1  UNL1       -0.2264
      5 N          62.7571   90.3553   12.7921 N.am    1  UNL1       -0.2711
      6 H          62.5318   90.4007   13.7494 H       1  UNL1        0.1527
      7 O          64.4375   92.3134   13.0946 O.3     1  UNL1       -0.4419
      8 C          66.1385   93.3394   12.3502 C.3     1  UNL1        0.0437
      9 C          65.9152   92.2351   13.3405 C.3     1  UNL1        0.1378
     10 C          65.6919   91.1309   14.3307 C.3     1  UNL1        0.0437
     11 C          67.3928   92.1568   13.5863 C.3     1  UNL1        0.0437
     12 C          62.7475   88.0185   11.6567 C.3     1  UNL1        0.0469
     13 C          63.3503   87.2492   12.7946 C.ar    1  UNL1       -0.0205
     14 C          64.0187   87.9785   13.9222 C.ar    1  UNL1       -0.0042
     15 C          64.6215   87.2093   15.0601 C.ar    1  UNL1       -0.0003
     16 C          64.5560   85.7108   15.0705 C.ar    1  UNL1       -0.0000
     17 C          63.8876   84.9814   13.9429 C.ar    1  UNL1       -0.0003
     18 C          63.8221   83.4829   13.9533 C.ar    1  UNL1       -0.0000
     19 C          63.1538   82.7537   12.8257 C.ar    1  UNL1       -0.0000
     20 C          62.5510   83.5229   11.6878 C.ar    1  UNL1       -0.0000
     21 C          62.6165   85.0214   11.6774 C.ar    1  UNL1       -0.0003
     22 C          63.2848   85.7507   12.8050 C.ar    1  UNL1       -0.0039
     23 S          60.6502   89.8036    9.7977 S.3     1  UNL1       -0.1298
     24 C          60.1079   88.6788    8.9666 C.3     1  UNL1        0.1281
     25 C          59.3548   88.9750    7.7036 C.2     1  UNL1        0.2325
     26 O          58.2138   88.0950    7.2868 O.2     1  UNL1       -0.2742
     27 N          59.7428   90.1512    6.8574 N.am    1  UNL1       -0.3033
     28 H          60.4916   90.7288    7.1310 H       1  UNL1        0.1495
     29 C          58.9898   90.4474    5.5944 C.3     1  UNL1        0.0941
     30 C          59.1290   91.7875    4.9350 C.3     1  UNL1        0.0492
     31 C          60.2764   92.0502    4.0051 C.ar    1  UNL1       -0.0013
     32 C          61.5644   91.3001    4.1727 C.ar    1  UNL1       -0.0011
     33 C          62.7118   91.5628    3.2429 C.ar    1  UNL1        0.0204
     34 C          62.5711   92.5758    2.1456 C.ar    1  UNL1        0.0989
     35 N          61.2830   93.3260    1.9781 N.ar    1  UNL1       -0.2426
     36 C          60.1357   93.0632    2.9078 C.ar    1  UNL1        0.0946
     37 C          60.3185   87.2579    9.3986 C.3     1  UNL1        0.0463
     38 C          61.0744   86.3098    8.5155 C.ar    1  UNL1       -0.0208
     39 C          62.5389   86.0788    8.7431 C.ar    1  UNL1       -0.0042
     40 C          63.2947   85.1307    7.8600 C.ar    1  UNL1       -0.0003
     41 C          62.5861   84.4136    6.7494 C.ar    1  UNL1       -0.0000
     42 C          61.1216   84.6447    6.5217 C.ar    1  UNL1       -0.0003
     43 C          60.3658   85.5928    7.4048 C.ar    1  UNL1       -0.0042
@<TRIPOS>BOND
     1     8     9    1
     2     9    10    1
     3     9    11    1
     4     9     7    1
     5     7     3    1
     6     3     4    2
     7     3     5   am
     8     5     2    1
     9     2     1    1
    10     1    23    1
    11    23    24    1
    12    24    37    1
    13    37    38    1
    14    38    39   ar
    15    39    40   ar
    16    40    41   ar
    17    41    42   ar
    18    42    43   ar
    19    24    25    1
    20    25    26    2
    21    25    27   am
    22    27    29    1
    23    29    30    1
    24    30    31    1
    25    31    32   ar
    26    32    33   ar
    27    33    34   ar
    28    34    35   ar
    29    35    36   ar
    30     2    12    1
    31    12    13    1
    32    13    14   ar
    33    14    15   ar
    34    15    16   ar
    35    16    17   ar
    36    17    18   ar
    37    18    19   ar
    38    19    20   ar
    39    20    21   ar
    40    21    22   ar
    41    43    38   ar
    42    36    31   ar
    43    22    13   ar
    44    22    17   ar
    45     5     6    1
    46    27    28    1
@<TRIPOS>MOLECULE
*****
 43 46 0 0 0
SMALL
GASTEIGER

@<TRIPOS>ATOM
      1 C          62.6949   85.7442   12.1318 C.3     1  UNL1        0.0780
      2 C          63.5704   85.1028   13.1673 C.3     1  UNL1        0.0899
      3 C          64.2825   82.7483   12.3310 C.2     1  UNL1        0.4014
      4 O          64.9943   83.3762   11.1695 O.2     1  UNL1       -0.2264
      5 N          63.5705   83.6116   13.3299 N.am    1  UNL1       -0.2711
      6 H          63.1033   83.1995   14.0922 H       1  UNL1        0.1527
      7 O          64.2826   81.2572   12.4936 O.3     1  UNL1       -0.4419
      8 C          63.5159   80.5931   14.3568 C.3     1  UNL1        0.0437
      9 C          63.0356   80.5509   12.9364 C.3     1  UNL1        0.1378
     10 C          62.5552   80.5087   11.5160 C.3     1  UNL1        0.0437
     11 C          61.7885   79.8446   13.3791 C.3     1  UNL1        0.0437
     12 C          64.4456   85.9525   14.0402 C.3     1  UNL1        0.0469
     13 C          63.8855   86.5750   15.2847 C.ar    1  UNL1       -0.0205
     14 C          63.3151   85.7064   16.3664 C.ar    1  UNL1       -0.0042
     15 C          62.7550   86.3289   17.6109 C.ar    1  UNL1       -0.0003
     16 C          62.7653   87.8200   17.7737 C.ar    1  UNL1       -0.0000
     17 C          63.3357   88.6886   16.6919 C.ar    1  UNL1       -0.0003
     18 C          63.3459   90.1797   16.8547 C.ar    1  UNL1       -0.0000
     19 C          63.9163   91.0483   15.7730 C.ar    1  UNL1       -0.0000
     20 C          64.4764   90.4258   14.5285 C.ar    1  UNL1       -0.0000
     21 C          64.4661   88.9348   14.3657 C.ar    1  UNL1       -0.0003
     22 C          63.8958   88.0662   15.4474 C.ar    1  UNL1       -0.0039
     23 S          62.6919   87.2357   11.9718 S.3     1  UNL1       -0.1298
     24 C          61.9239   87.8680   10.8491 C.3     1  UNL1        0.1281
     25 C          62.2167   89.2821   10.4432 C.2     1  UNL1        0.2325
     26 O          61.3242   89.9804    9.4605 O.2     1  UNL1       -0.2742
     27 N          63.4019   89.9979   11.0201 N.am    1  UNL1       -0.3033
     28 H          63.9877   89.5396   11.6651 H       1  UNL1        0.1495
     29 C          63.6947   91.4119   10.6142 C.3     1  UNL1        0.0941
     30 C          64.6802   92.2281   11.3969 C.3     1  UNL1        0.0492
     31 C          65.7415   93.0107   10.6818 C.ar    1  UNL1       -0.0013
     32 C          66.9531   92.3111   10.1409 C.ar    1  UNL1       -0.0011
     33 C          68.0143   93.0937    9.4259 C.ar    1  UNL1        0.0204
     34 C          67.8639   94.5759    9.2517 C.ar    1  UNL1        0.0989
     35 N          66.6524   95.2756    9.7926 N.ar    1  UNL1       -0.2426
     36 C          65.5912   94.4930   10.5076 C.ar    1  UNL1        0.0946
     37 C          60.8632   87.0863   10.1324 C.3     1  UNL1        0.0463
     38 C          61.2179   86.2776    8.9198 C.ar    1  UNL1       -0.0208
     39 C          60.1768   85.9907    7.8789 C.ar    1  UNL1       -0.0042
     40 C          60.5315   85.1821    6.6663 C.ar    1  UNL1       -0.0003
     41 C          61.9273   84.6604    6.4947 C.ar    1  UNL1       -0.0000
     42 C          62.9684   84.9473    7.5357 C.ar    1  UNL1       -0.0003
     43 C          62.6137   85.7559    8.7483 C.ar    1  UNL1       -0.0042
@<TRIPOS>BOND
     1     8     9    1
     2     9    10    1
     3     9    11    1
     4     9     7    1
     5     7     3    1
     6     3     4    2
     7     3     5   am
     8     5     2    1
     9     2     1    1
    10     1    23    1
    11    23    24    1
    12    24    37    1
    13    37    38    1
    14    38    39   ar
    15    39    40   ar
    16    40    41   ar
    17    41    42   ar
    18    42    43   ar
    19    24    25    1
    20    25    26    2
    21    25    27   am
    22    27    29    1
    23    29    30    1
    24    30    31    1
    25    31    32   ar
    26    32    33   ar
    27    33    34   ar
    28    34    35   ar
    29    35    36   ar
    30     2    12    1
    31    12    13    1
    32    13    14   ar
    33    14    15   ar
    34    15    16   ar
    35    16    17   ar
    36    17    18   ar
    37    18    19   ar
    38    19    20   ar
    39    20    21   ar
    40    21    22   ar
    41    43    38   ar
    42    36    31   ar
    43    22    13   ar
    44    22    17   ar
    45     5     6    1
    46    27    28    1
@<TRIPOS>MOLECULE
*****
 43 46 0 0 0
SMALL
GASTEIGER

@<TRIPOS>ATOM
      1 C          62.5267   89.6512   12.8588 C.3     1  UNL1        0.0780
      2 C          63.5566   89.5533   13.9449 C.3     1  UNL1        0.0899
      3 C          63.6804   87.6600   15.7198 C.2     1  UNL1        0.4014
      4 O          62.7885   88.4532   16.6282 O.2     1  UNL1       -0.2264
      5 N          64.0645   88.2100   14.3782 N.am    1  UNL1       -0.2711
      6 H          64.6498   87.6893   13.7819 H       1  UNL1        0.1527
      7 O          64.1882   86.3167   16.1529 O.3     1  UNL1       -0.4419
      8 C          64.6693   84.8386   14.7093 C.3     1  UNL1        0.0437
      9 C          63.5257   85.0674   15.6525 C.3     1  UNL1        0.1378
     10 C          62.3820   85.2962   16.5957 C.3     1  UNL1        0.0437
     11 C          62.8632   83.8181   15.1522 C.3     1  UNL1        0.0437
     12 C          64.0787   90.7988   14.5978 C.3     1  UNL1        0.0469
     13 C          65.4495   91.3050   14.2590 C.ar    1  UNL1       -0.0205
     14 C          66.5519   91.2205   15.2726 C.ar    1  UNL1       -0.0042
     15 C          67.9227   91.7268   14.9338 C.ar    1  UNL1       -0.0003
     16 C          68.1909   92.3176   13.5815 C.ar    1  UNL1       -0.0000
     17 C          67.0885   92.4022   12.5678 C.ar    1  UNL1       -0.0003
     18 C          67.3567   92.9930   11.2155 C.ar    1  UNL1       -0.0000
     19 C          66.2543   93.0775   10.2019 C.ar    1  UNL1       -0.0000
     20 C          64.8835   92.5713   10.5407 C.ar    1  UNL1       -0.0000
     21 C          64.6153   91.9804   11.8930 C.ar    1  UNL1       -0.0003
     22 C          65.7177   91.8959   12.9066 C.ar    1  UNL1       -0.0039
     23 S          62.6698   88.8278   11.6131 S.3     1  UNL1       -0.1298
     24 C          61.4539   88.2464   10.9546 C.3     1  UNL1        0.1281
     25 C          60.6032   89.1011   10.0625 C.2     1  UNL1        0.2325
     26 O          60.1848   90.4697   10.5116 O.2     1  UNL1       -0.2742
     27 N          60.1709   88.5871    8.7212 N.am    1  UNL1       -0.3033
     28 H          60.4456   87.6888    8.4265 H       1  UNL1        0.1495
     29 C          59.3203   89.4417    7.8291 C.3     1  UNL1        0.0941
     30 C          59.3667   89.2518    6.3419 C.3     1  UNL1        0.0492
     31 C          59.4909   90.4420    5.4373 C.ar    1  UNL1       -0.0013
     32 C          60.8209   90.7948    4.8403 C.ar    1  UNL1       -0.0011
     33 C          60.9450   91.9849    3.9359 C.ar    1  UNL1        0.0204
     34 C          59.7390   92.8223    3.6284 C.ar    1  UNL1        0.0989
     35 N          58.4090   92.4695    4.2254 N.ar    1  UNL1       -0.2426
     36 C          58.2849   91.2793    5.1299 C.ar    1  UNL1        0.0946
     37 C          61.0887   86.8105   11.1882 C.3     1  UNL1        0.0463
     38 C          62.0136   85.7186   10.7383 C.ar    1  UNL1       -0.0208
     39 C          62.4948   84.6914   11.7198 C.ar    1  UNL1       -0.0042
     40 C          63.4197   83.5996   11.2699 C.ar    1  UNL1       -0.0003
     41 C          63.8634   83.5349    9.8385 C.ar    1  UNL1       -0.0000
     42 C          63.3822   84.5621    8.8570 C.ar    1  UNL1       -0.0003
     43 C          62.4573   85.6539    9.3069 C.ar    1  UNL1       -0.0042
@<TRIPOS>BOND
     1     8     9    1
     2     9    10    1
     3     9    11    1
     4     9     7    1
     5     7     3    1
     6     3     4    2
     7     3     5   am
     8     5     2    1
     9     2     1    1
    10     1    23    1
    11    23    24    1
    12    24    37    1
    13    37    38    1
    14    38    39   ar
    15    39    40   ar
    16    40    41   ar
    17    41    42   ar
    18    42    43   ar
    19    24    25    1
    20    25    26    2
    21    25    27   am
    22    27    29    1
    23    29    30    1
    24    30    31    1
    25    31    32   ar
    26    32    33   ar
    27    33    34   ar
    28    34    35   ar
    29    35    36   ar
    30     2    12    1
    31    12    13    1
    32    13    14   ar
    33    14    15   ar
    34    15    16   ar
    35    16    17   ar
    36    17    18   ar
    37    18    19   ar
    38    19    20   ar
    39    20    21   ar
    40    21    22   ar
    41    43    38   ar
    42    36    31   ar
    43    22    13   ar
    44    22    17   ar
    45     5     6    1
    46    27    28    1
@<TRIPOS>MOLECULE
*****
 43 46 0 0 0
SMALL
GASTEIGER

@<TRIPOS>ATOM
      1 C          64.2032   86.0955   13.8519 C.3     1  UNL1        0.0780
      2 C          63.1946   85.2334   13.1522 C.3     1  UNL1        0.0899
      3 C          62.5780   83.2995   14.7739 C.2     1  UNL1        0.4014
      4 O          62.1064   84.2997   15.7873 O.2     1  UNL1       -0.2264
      5 N          63.1221   83.7663   13.4563 N.am    1  UNL1       -0.2711
      6 H          63.4317   83.1099   12.7911 H       1  UNL1        0.1527
      7 O          62.5056   81.8324   15.0779 O.3     1  UNL1       -0.4419
      8 C          63.8983   80.7966   13.8582 C.3     1  UNL1        0.0437
      9 C          62.4023   80.8388   13.9589 C.3     1  UNL1        0.1378
     10 C          60.9063   80.8809   14.0597 C.3     1  UNL1        0.0437
     11 C          62.2990   79.8451   12.8400 C.3     1  UNL1        0.0437
     12 C          62.2585   85.8385   12.1484 C.3     1  UNL1        0.0469
     13 C          62.3904   85.4910   10.6952 C.ar    1  UNL1       -0.0205
     14 C          63.5232   84.6242   10.2311 C.ar    1  UNL1       -0.0042
     15 C          63.6551   84.2767    8.7779 C.ar    1  UNL1       -0.0003
     16 C          62.6542   84.7960    7.7888 C.ar    1  UNL1       -0.0000
     17 C          61.5213   85.6628    8.2528 C.ar    1  UNL1       -0.0003
     18 C          60.5204   86.1821    7.2637 C.ar    1  UNL1       -0.0000
     19 C          59.3876   87.0489    7.7277 C.ar    1  UNL1       -0.0000
     20 C          59.2557   87.3964    9.1809 C.ar    1  UNL1       -0.0000
     21 C          60.2566   86.8771   10.1701 C.ar    1  UNL1       -0.0003
     22 C          61.3894   86.0103    9.7060 C.ar    1  UNL1       -0.0039
     23 S          63.7629   87.3459   14.5539 S.3     1  UNL1       -0.1298
     24 C          63.8708   88.6722   13.8616 C.3     1  UNL1        0.1281
     25 C          64.1561   89.9120   14.6564 C.2     1  UNL1        0.2325
     26 O          63.1684   90.3916   15.6783 O.2     1  UNL1       -0.2742
     27 N          65.4291   90.6722   14.4291 N.am    1  UNL1       -0.3033
     28 H          66.0773   90.3574   13.7583 H       1  UNL1        0.1495
     29 C          65.7144   91.9120   15.2238 C.3     1  UNL1        0.0941
     30 C          66.5324   93.0164   14.6228 C.3     1  UNL1        0.0492
     31 C          66.8201   93.0208   13.1506 C.ar    1  UNL1       -0.0013
     32 C          66.0311   93.9089   12.2349 C.ar    1  UNL1       -0.0011
     33 C          66.3189   93.9133   10.7628 C.ar    1  UNL1        0.0204
     34 C          67.3957   93.0296   10.2064 C.ar    1  UNL1        0.0989
     35 N          68.1846   92.1414   11.1221 N.ar    1  UNL1       -0.2426
     36 C          67.8969   92.1370   12.5942 C.ar    1  UNL1        0.0946
     37 C          63.6934   88.7588   12.3747 C.3     1  UNL1        0.0463
     38 C          62.4353   89.3412   11.8021 C.ar    1  UNL1       -0.0208
     39 C          62.4041   89.8024   10.3751 C.ar    1  UNL1       -0.0042
     40 C          61.1459   90.3849    9.8025 C.ar    1  UNL1       -0.0003
     41 C          59.9191   90.5061   10.6569 C.ar    1  UNL1       -0.0000
     42 C          59.9503   90.0449   12.0838 C.ar    1  UNL1       -0.0003
     43 C          61.2084   89.4625   12.6564 C.ar    1  UNL1       -0.0042
@<TRIPOS>BOND
     1     8     9    1
     2     9    10    1
     3     9    11    1
     4     9     7    1
     5     7     3    1
     6     3     4    2
     7     3     5   am
     8     5     2    1
     9     2     1    1
    10     1    23    1
    11    23    24    1
    12    24    37    1
    13    37    38    1
    14    38    39   ar
    15    39    40   ar
    16    40    41   ar
    17    41    42   ar
    18    42    43   ar
    19    24    25    1
    20    25    26    2
    21    25    27   am
    22    27    29    1
    23    29    30    1
    24    30    31    1
    25    31    32   ar
    26    32    33   ar
    27    33    34   ar
    28    34    35   ar
    29    35    36   ar
    30     2    12    1
    31    12    13    1
    32    13    14   ar
    33    14    15   ar
    34    15    16   ar
    35    16    17   ar
    36    17    18   ar
    37    18    19   ar
    38    19    20   ar
    39    20    21   ar
    40    21    22   ar
    41    43    38   ar
    42    36    31   ar
    43    22    13   ar
    44    22    17   ar
    45     5     6    1
    46    27    28    1
@<TRIPOS>MOLECULE
*****
 43 46 0 0 0
SMALL
GASTEIGER

@<TRIPOS>ATOM
      1 C          62.5755   88.8770   11.3272 C.3     1  UNL1        0.0780
      2 C          63.2540   89.3260   12.5874 C.3     1  UNL1        0.0899
      3 C          63.5716   88.3217   14.9623 C.2     1  UNL1        0.4014
      4 O          62.6156   89.3349   15.5187 O.2     1  UNL1       -0.2264
      5 N          63.8908   88.3172   13.4967 N.am    1  UNL1       -0.2711
      6 H          64.5183   87.6522   13.1316 H       1  UNL1        0.1527
      7 O          64.2084   87.3129   15.8716 O.3     1  UNL1       -0.4419
      8 C          62.8191   86.2639   17.0839 C.3     1  UNL1        0.0437
      9 C          63.6873   85.9069   15.9140 C.3     1  UNL1        0.1378
     10 C          64.5555   85.5499   14.7441 C.3     1  UNL1        0.0437
     11 C          63.1663   84.5010   15.9564 C.3     1  UNL1        0.0437
     12 C          63.2956   90.7838   12.9382 C.3     1  UNL1        0.0469
     13 C          64.4792   91.6167   12.5438 C.ar    1  UNL1       -0.0205
     14 C          64.7064   91.9616   11.1019 C.ar    1  UNL1       -0.0042
     15 C          65.8900   92.7945   10.7075 C.ar    1  UNL1       -0.0003
     16 C          66.8463   93.2823   11.7550 C.ar    1  UNL1       -0.0000
     17 C          66.6191   92.9374   13.1971 C.ar    1  UNL1       -0.0003
     18 C          67.5754   93.4252   14.2446 C.ar    1  UNL1       -0.0000
     19 C          67.3482   93.0802   15.6866 C.ar    1  UNL1       -0.0000
     20 C          66.1646   92.2474   16.0810 C.ar    1  UNL1       -0.0000
     21 C          65.2083   91.7595   15.0334 C.ar    1  UNL1       -0.0003
     22 C          65.4355   92.1045   13.5915 C.ar    1  UNL1       -0.0039
     23 S          62.0612   87.4726   11.2118 S.3     1  UNL1       -0.1298
     24 C          61.8050   86.8765    9.8594 C.3     1  UNL1        0.1281
     25 C          60.6495   87.3592    9.0336 C.2     1  UNL1        0.2325
     26 O          59.6645   86.3757    8.4748 O.2     1  UNL1       -0.2742
     27 N          60.4791   88.8254    8.7668 N.am    1  UNL1       -0.3033
     28 H          61.1256   89.4709    9.1336 H       1  UNL1        0.1495
     29 C          59.3236   89.3081    7.9411 C.3     1  UNL1        0.0941
     30 C          59.3459   89.1421    6.4505 C.3     1  UNL1        0.0492
     31 C          59.4171   90.3489    5.5624 C.ar    1  UNL1       -0.0013
     32 C          60.7307   90.7702    4.9735 C.ar    1  UNL1       -0.0011
     33 C          60.8020   91.9770    4.0855 C.ar    1  UNL1        0.0204
     34 C          59.5596   92.7625    3.7864 C.ar    1  UNL1        0.0989
     35 N          58.2459   92.3412    4.3753 N.ar    1  UNL1       -0.2426
     36 C          58.1747   91.1344    5.2633 C.ar    1  UNL1        0.0946
     37 C          62.7044   85.7977    9.3327 C.3     1  UNL1        0.0463
     38 C          63.0194   84.6026   10.1827 C.ar    1  UNL1       -0.0208
     39 C          63.9371   83.5350    9.6649 C.ar    1  UNL1       -0.0042
     40 C          64.2521   82.3398   10.5149 C.ar    1  UNL1       -0.0003
     41 C          63.6495   82.2123   11.8825 C.ar    1  UNL1       -0.0000
     42 C          62.7319   83.2799   12.4003 C.ar    1  UNL1       -0.0003
     43 C          62.4168   84.4750   11.5503 C.ar    1  UNL1       -0.0042
@<TRIPOS>BOND
     1     8     9    1
     2     9    10    1
     3     9    11    1
     4     9     7    1
     5     7     3    1
     6     3     4    2
     7     3     5   am
     8     5     2    1
     9     2     1    1
    10     1    23    1
    11    23    24    1
    12    24    37    1
    13    37    38    1
    14    38    39   ar
    15    39    40   ar
    16    40    41   ar
    17    41    42   ar
    18    42    43   ar
    19    24    25    1
    20    25    26    2
    21    25    27   am
    22    27    29    1
    23    29    30    1
    24    30    31    1
    25    31    32   ar
    26    32    33   ar
    27    33    34   ar
    28    34    35   ar
    29    35    36   ar
    30     2    12    1
    31    12    13    1
    32    13    14   ar
    33    14    15   ar
    34    15    16   ar
    35    16    17   ar
    36    17    18   ar
    37    18    19   ar
    38    19    20   ar
    39    20    21   ar
    40    21    22   ar
    41    43    38   ar
    42    36    31   ar
    43    22    13   ar
    44    22    17   ar
    45     5     6    1
    46    27    28    1
@<TRIPOS>MOLECULE
*****
 43 46 0 0 0
SMALL
GASTEIGER

@<TRIPOS>ATOM
      1 C          60.3469   90.2855   10.6388 C.3     1  UNL1        0.0780
      2 C          60.1482   89.2654    9.5572 C.3     1  UNL1        0.0899
      3 C          59.3451   89.1385    7.0896 C.2     1  UNL1        0.4014
      4 O          58.2271   88.2267    7.5003 O.2     1  UNL1       -0.2264
      5 N          60.3057   89.6578    8.1180 N.am    1  UNL1       -0.2711
      6 H          61.0394   90.2563    7.8484 H       1  UNL1        0.1527
      7 O          59.5027   89.5310    5.6505 O.3     1  UNL1       -0.4419
      8 C          60.7376   91.0876    4.9074 C.3     1  UNL1        0.0437
      9 C          59.2793   90.9541    5.2324 C.3     1  UNL1        0.1378
     10 C          57.8211   90.8207    5.5574 C.3     1  UNL1        0.0437
     11 C          59.0559   92.3773    4.8143 C.3     1  UNL1        0.0437
     12 C          59.7919   87.8529    9.9148 C.3     1  UNL1        0.0469
     13 C          60.8753   86.8404   10.1409 C.ar    1  UNL1       -0.0205
     14 C          61.4447   86.6453   11.5148 C.ar    1  UNL1       -0.0042
     15 C          62.5281   85.6329   11.7409 C.ar    1  UNL1       -0.0003
     16 C          63.0422   84.8155   10.5930 C.ar    1  UNL1       -0.0000
     17 C          62.4728   85.0105    9.2190 C.ar    1  UNL1       -0.0003
     18 C          62.9868   84.1931    8.0712 C.ar    1  UNL1       -0.0000
     19 C          62.4175   84.3882    6.6972 C.ar    1  UNL1       -0.0000
     20 C          61.3340   85.4007    6.4712 C.ar    1  UNL1       -0.0000
     21 C          60.8200   86.2181    7.6190 C.ar    1  UNL1       -0.0003
     22 C          61.3894   86.0230    8.9929 C.ar    1  UNL1       -0.0039
     23 S          60.8808   89.8661   11.9765 S.3     1  UNL1       -0.1298
     24 C          62.3575   89.8965   12.2377 C.3     1  UNL1        0.1281
     25 C          62.8994   89.3868   13.5403 C.2     1  UNL1        0.2325
     26 O          62.4997   90.0447   14.8277 O.2     1  UNL1       -0.2742
     27 N          63.8410   88.2192   13.5554 N.am    1  UNL1       -0.3033
     28 H          64.1033   87.7874   12.7104 H       1  UNL1        0.1495
     29 C          64.3828   87.7095   14.8578 C.3     1  UNL1        0.0941
     30 C          65.0869   86.3861   14.9107 C.3     1  UNL1        0.0492
     31 C          64.3056   85.1143   14.7611 C.ar    1  UNL1       -0.0013
     32 C          64.7746   84.0534   13.8101 C.ar    1  UNL1       -0.0011
     33 C          63.9933   82.7818   13.6605 C.ar    1  UNL1        0.0204
     34 C          62.7430   82.5711   14.4619 C.ar    1  UNL1        0.0989
     35 N          62.2739   83.6320   15.4129 N.ar    1  UNL1       -0.2426
     36 C          63.0553   84.9036   15.5625 C.ar    1  UNL1        0.0946
     37 C          63.2924   90.4366   11.1965 C.3     1  UNL1        0.0463
     38 C          64.2676   91.5191   11.5531 C.ar    1  UNL1       -0.0208
     39 C          64.6788   92.5277   10.5218 C.ar    1  UNL1       -0.0042
     40 C          65.6540   93.6102   10.8785 C.ar    1  UNL1       -0.0003
     41 C          66.2180   93.6841   12.2664 C.ar    1  UNL1       -0.0000
     42 C          65.8068   92.6755   13.2977 C.ar    1  UNL1       -0.0003
     43 C          64.8316   91.5930   12.9410 C.ar    1  UNL1       -0.0042
@<TRIPOS>BOND
     1     8     9    1
     2     9    10    1
     3     9    11    1
     4     9     7    1
     5     7     3    1
     6     3     4    2
     7     3     5   am
     8     5     2    1
     9     2     1    1
    10     1    23    1
    11    23    24    1
    12    24    37    1
    13    37    38    1
    14    38    39   ar
    15    39    40   ar
    16    40    41   ar
    17    41    42   ar
    18    42    43   ar
    19    24    25    1
    20    25    26    2
    21    25    27   am
    22    27    29    1
    23    29    30    1
    24    30    31    1
    25    31    32   ar
    26    32    33   ar
    27    33    34   ar
    28    34    35   ar
    29    35    36   ar
    30     2    12    1
    31    12    13    1
    32    13    14   ar
    33    14    15   ar
    34    15    16   ar
    35    16    17   ar
    36    17    18   ar
    37    18    19   ar
    38    19    20   ar
    39    20    21   ar
    40    21    22   ar
    41    43    38   ar
    42    36    31   ar
    43    22    13   ar
    44    22    17   ar
    45     5     6    1
    46    27    28    1
@<TRIPOS>MOLECULE
*****
 43 46 0 0 0
SMALL
GASTEIGER

@<TRIPOS>ATOM
      1 C          63.4931   87.0951   15.0496 C.3     1  UNL1        0.0780
      2 C          63.8751   86.3632   13.7972 C.3     1  UNL1        0.0899
      3 C          62.4610   86.6305   11.6342 C.2     1  UNL1        0.4014
      4 O          61.4821   85.6172   12.1489 O.2     1  UNL1       -0.2264
      5 N          63.6575   87.0035   12.4583 N.am    1  UNL1       -0.2711
      6 H          64.2999   87.6686   12.1204 H       1  UNL1        0.1527
      7 O          62.2433   87.2709   10.2953 O.3     1  UNL1       -0.4419
      8 C          60.2837   87.3151    9.4841 C.3     1  UNL1        0.0437
      9 C          61.5264   86.5201    9.2125 C.3     1  UNL1        0.1378
     10 C          62.7690   85.7252    8.9409 C.3     1  UNL1        0.0437
     11 C          60.8095   85.7694    8.1297 C.3     1  UNL1        0.0437
     12 C          64.4748   84.9910   13.8837 C.3     1  UNL1        0.0469
     13 C          63.5926   83.7805   13.8036 C.ar    1  UNL1       -0.0205
     14 C          62.7234   83.4076   14.9678 C.ar    1  UNL1       -0.0042
     15 C          61.8412   82.1971   14.8877 C.ar    1  UNL1       -0.0003
     16 C          61.8282   81.3595   13.6434 C.ar    1  UNL1       -0.0000
     17 C          62.6974   81.7325   12.4791 C.ar    1  UNL1       -0.0003
     18 C          62.6844   80.8949   11.2349 C.ar    1  UNL1       -0.0000
     19 C          63.5535   81.2679   10.0707 C.ar    1  UNL1       -0.0000
     20 C          64.4358   82.4784   10.1508 C.ar    1  UNL1       -0.0000
     21 C          64.4488   83.3159   11.3950 C.ar    1  UNL1       -0.0003
     22 C          63.5796   82.9430   12.5592 C.ar    1  UNL1       -0.0039
     23 S          64.2114   88.3557   15.4302 S.3     1  UNL1       -0.1298
     24 C          63.6495   89.6884   15.0324 C.3     1  UNL1        0.1281
     25 C          64.3046   90.9510   15.5087 C.2     1  UNL1        0.2325
     26 O          63.5804   91.8603   16.4566 O.2     1  UNL1       -0.2742
     27 N          65.6840   91.3042   15.0370 N.am    1  UNL1       -0.3033
     28 H          66.1594   90.7074   14.4149 H       1  UNL1        0.1495
     29 C          66.3392   92.5667   15.5133 C.3     1  UNL1        0.0941
     30 C          66.6091   93.6821   14.5473 C.3     1  UNL1        0.0492
     31 C          66.8577   93.3770   13.0998 C.ar    1  UNL1       -0.0013
     32 C          66.1805   94.1882   12.0353 C.ar    1  UNL1       -0.0011
     33 C          66.4291   93.8831   10.5879 C.ar    1  UNL1        0.0204
     34 C          67.3550   92.7668   10.2050 C.ar    1  UNL1        0.0989
     35 N          68.0322   91.9556   11.2695 N.ar    1  UNL1       -0.2426
     36 C          67.7835   92.2607   12.7169 C.ar    1  UNL1        0.0946
     37 C          62.4326   89.7585   14.1583 C.3     1  UNL1        0.0463
     38 C          62.5527   90.2392   12.7425 C.ar    1  UNL1       -0.0208
     39 C          63.8352   90.8536   12.2653 C.ar    1  UNL1       -0.0042
     40 C          63.9554   91.3342   10.8495 C.ar    1  UNL1       -0.0003
     41 C          62.7931   91.2006    9.9109 C.ar    1  UNL1       -0.0000
     42 C          61.5106   90.5862   10.3881 C.ar    1  UNL1       -0.0003
     43 C          61.3904   90.1055   11.8039 C.ar    1  UNL1       -0.0042
@<TRIPOS>BOND
     1     8     9    1
     2     9    10    1
     3     9    11    1
     4     9     7    1
     5     7     3    1
     6     3     4    2
     7     3     5   am
     8     5     2    1
     9     2     1    1
    10     1    23    1
    11    23    24    1
    12    24    37    1
    13    37    38    1
    14    38    39   ar
    15    39    40   ar
    16    40    41   ar
    17    41    42   ar
    18    42    43   ar
    19    24    25    1
    20    25    26    2
    21    25    27   am
    22    27    29    1
    23    29    30    1
    24    30    31    1
    25    31    32   ar
    26    32    33   ar
    27    33    34   ar
    28    34    35   ar
    29    35    36   ar
    30     2    12    1
    31    12    13    1
    32    13    14   ar
    33    14    15   ar
    34    15    16   ar
    35    16    17   ar
    36    17    18   ar
    37    18    19   ar
    38    19    20   ar
    39    20    21   ar
    40    21    22   ar
    41    43    38   ar
    42    36    31   ar
    43    22    13   ar
    44    22    17   ar
    45     5     6    1
    46    27    28    1
@<TRIPOS>MOLECULE
*****
 43 46 0 0 0
SMALL
GASTEIGER

@<TRIPOS>ATOM
      1 C          61.7407   86.4838   11.8556 C.3     1  UNL1        0.0780
      2 C          63.0311   86.8004   12.5518 C.3     1  UNL1        0.0899
      3 C          64.1849   88.7130   13.8788 C.2     1  UNL1        0.4014
      4 O          64.3789   87.7879   15.0435 O.2     1  UNL1       -0.2264
      5 N          63.5110   88.2193   12.6330 N.am    1  UNL1       -0.2711
      6 H          63.3836   88.8266   11.8686 H       1  UNL1        0.1527
      7 O          64.6647   90.1319   13.9600 O.3     1  UNL1       -0.4419
      8 C          63.1585   90.2202   15.4513 C.3     1  UNL1        0.0437
      9 C          64.4649   90.9202   15.2205 C.3     1  UNL1        0.1378
     10 C          65.7713   91.6202   14.9897 C.3     1  UNL1        0.0437
     11 C          64.2652   91.7085   16.4809 C.3     1  UNL1        0.0437
     12 C          63.8417   85.6982   13.1667 C.3     1  UNL1        0.0469
     13 C          63.2066   84.3696   13.4519 C.ar    1  UNL1       -0.0205
     14 C          62.5016   84.1398   14.7558 C.ar    1  UNL1       -0.0042
     15 C          61.8665   82.8111   15.0410 C.ar    1  UNL1       -0.0003
     16 C          61.9363   81.7123   14.0224 C.ar    1  UNL1       -0.0000
     17 C          62.6413   81.9422   12.7184 C.ar    1  UNL1       -0.0003
     18 C          62.7111   80.8434   11.6997 C.ar    1  UNL1       -0.0000
     19 C          63.4160   81.0732   10.3958 C.ar    1  UNL1       -0.0000
     20 C          64.0511   82.4018   10.1106 C.ar    1  UNL1       -0.0000
     21 C          63.9813   83.5006   11.1292 C.ar    1  UNL1       -0.0003
     22 C          63.2764   83.2708   12.4331 C.ar    1  UNL1       -0.0039
     23 S          60.7222   87.5631   11.6367 S.3     1  UNL1       -0.1298
     24 C          60.7350   88.3597   10.3657 C.3     1  UNL1        0.1281
     25 C          61.2696   89.7613   10.3644 C.2     1  UNL1        0.2325
     26 O          60.3538   90.9135   10.6535 O.2     1  UNL1       -0.2742
     27 N          62.7199   90.0105   10.0740 N.am    1  UNL1       -0.3033
     28 H          63.3210   89.2542    9.8842 H       1  UNL1        0.1495
     29 C          63.2545   91.4120   10.0726 C.3     1  UNL1        0.0941
     30 C          64.3207   91.8089   11.0502 C.3     1  UNL1        0.0492
     31 C          65.4489   92.6946   10.6108 C.ar    1  UNL1       -0.0013
     32 C          66.7092   92.0897   10.0671 C.ar    1  UNL1       -0.0011
     33 C          67.8373   92.9754    9.6279 C.ar    1  UNL1        0.0204
     34 C          67.7051   94.4659    9.7323 C.ar    1  UNL1        0.0989
     35 N          66.4447   95.0707   10.2760 N.ar    1  UNL1       -0.2426
     36 C          65.3167   94.1851   10.7153 C.ar    1  UNL1        0.0946
     37 C          60.2133   87.7548    9.0962 C.3     1  UNL1        0.0463
     38 C          60.9952   86.6801    8.4008 C.ar    1  UNL1       -0.0208
     39 C          60.3516   85.8657    7.3179 C.ar    1  UNL1       -0.0042
     40 C          61.1335   84.7910    6.6225 C.ar    1  UNL1       -0.0003
     41 C          62.5590   84.5307    7.0100 C.ar    1  UNL1       -0.0000
     42 C          63.2026   85.3450    8.0928 C.ar    1  UNL1       -0.0003
     43 C          62.4207   86.4197    8.7882 C.ar    1  UNL1       -0.0042
@<TRIPOS>BOND
     1     8     9    1
     2     9    10    1
     3     9    11    1
     4     9     7    1
     5     7     3    1
     6     3     4    2
     7     3     5   am
     8     5     2    1
     9     2     1    1
    10     1    23    1
    11    23    24    1
    12    24    37    1
    13    37    38    1
    14    38    39   ar
    15    39    40   ar
    16    40    41   ar
    17    41    42   ar
    18    42    43   ar
    19    24    25    1
    20    25    26    2
    21    25    27   am
    22    27    29    1
    23    29    30    1
    24    30    31    1
    25    31    32   ar
    26    32    33   ar
    27    33    34   ar
    28    34    35   ar
    29    35    36   ar
    30     2    12    1
    31    12    13    1
    32    13    14   ar
    33    14    15   ar
    34    15    16   ar
    35    16    17   ar
    36    17    18   ar
    37    18    19   ar
    38    19    20   ar
    39    20    21   ar
    40    21    22   ar
    41    43    38   ar
    42    36    31   ar
    43    22    13   ar
    44    22    17   ar
    45     5     6    1
    46    27    28    1
