@<TRIPOS>MOLECULE
*****
 35 40 0 0 0
SMALL
GASTEIGER

@<TRIPOS>ATOM
      1 N          62.9290   90.4007   12.6778 N.3     1  UNL1       -0.2679
      2 C          64.0507   91.3234   12.3033 C.3     1  UNL1        0.0978
      3 C          64.2899   91.6672   10.8630 C.3     1  UNL1        0.0224
      4 C          65.4117   92.5900   10.4885 C.3     1  UNL1        0.0065
      5 C          66.2941   93.1689   11.5543 C.3     1  UNL1        0.0277
      6 C          66.0549   92.8252   12.9947 C.ar    1  UNL1       -0.0073
      7 C          66.9373   93.4042   14.0605 C.ar    1  UNL1       -0.0015
      8 C          66.6981   93.0604   15.5008 C.ar    1  UNL1        0.0203
      9 C          65.5764   92.1377   15.8754 C.ar    1  UNL1        0.0985
     10 N          64.6939   91.5587   14.8095 N.ar    1  UNL1       -0.2471
     11 C          64.9332   91.9024   13.3692 C.ar    1  UNL1        0.0695
     12 C          61.6175   90.4820   11.9543 C.3     1  UNL1        0.0886
     13 C          61.2537   85.3719    7.3713 C.ar    1  UNL1       -0.0003
     14 C          62.5350   85.2503    8.1416 C.ar    1  UNL1       -0.0003
     15 C          62.8641   86.2480    9.2122 C.ar    1  UNL1       -0.0045
     16 C          61.9118   87.3673    9.5126 C.ar    1  UNL1       -0.0234
     17 C          60.6304   87.4889    8.7423 C.ar    1  UNL1       -0.0103
     18 C          60.3014   86.4912    7.6717 C.ar    1  UNL1       -0.0032
     19 C          59.6781   88.6082    9.0427 C.3     1  UNL1        0.0953
     20 N          60.0071   89.6059   10.1133 N.3     1  UNL1       -0.2934
     21 C          61.2885   89.4843   10.8836 C.3     1  UNL1        0.0748
     22 C          62.2408   88.3650   10.5833 C.3     1  UNL1        0.0432
     23 H          59.2491   89.5674   10.7948 H       1  UNL1        0.1236
     24 C          63.1187   89.3965   13.7759 C.3     1  UNL1        0.0738
     25 C          64.1376   88.3059   13.6270 C.3     1  UNL1        0.0347
     26 C          64.2895   87.2697   14.7010 C.3     1  UNL1        0.0736
     27 N          63.7139   85.8982   14.5067 N.3     1  UNL1       -0.2703
     28 C          63.3915   85.0446   15.6972 C.3     1  UNL1        0.0897
     29 C          62.8158   83.6732   15.5029 C.3     1  UNL1        0.0896
     30 N          62.5626   83.1554   14.1181 N.3     1  UNL1       -0.2716
     31 C          62.8850   84.0090   12.9276 C.3     1  UNL1        0.0896
     32 C          63.4606   85.3804   13.1219 C.3     1  UNL1        0.0897
     33 C          61.9869   81.7839   13.9238 C.3     1  UNL1        0.0577
     34 C          62.1153   80.3830   13.4034 C.3     1  UNL1        0.0173
     35 C          60.8615   80.8094   14.1078 C.3     1  UNL1        0.0173
@<TRIPOS>BOND
     1    13    14   ar
     2    14    15   ar
     3    15    16   ar
     4    16    17   ar
     5    17    18   ar
     6    17    19    1
     7    19    20    1
     8    20    21    1
     9    21    12    1
    10    12     1    1
    11     1    24    1
    12    24    25    1
    13    25    26    1
    14    26    27    1
    15    27    28    1
    16    28    29    1
    17    29    30    1
    18    30    33    1
    19    33    34    1
    20    34    35    1
    21    30    31    1
    22    31    32    1
    23     2     1    1
    24     2     3    1
    25     3     4    1
    26     4     5    1
    27     5     6    1
    28     6     7   ar
    29     7     8   ar
    30     8     9   ar
    31     9    10   ar
    32    10    11   ar
    33    21    22    1
    34    18    13   ar
    35    32    27    1
    36    11     2    1
    37    22    16    1
    38    35    33    1
    39    11     6   ar
    40    20    23    1
@<TRIPOS>MOLECULE
*****
 35 40 0 0 0
SMALL
GASTEIGER

@<TRIPOS>ATOM
      1 N          63.7878   90.0280   13.6048 N.3     1  UNL1       -0.2679
      2 C          64.7289   91.1610   13.8889 C.3     1  UNL1        0.0978
      3 C          65.2488   91.3733   15.2798 C.3     1  UNL1        0.0224
      4 C          66.1900   92.5063   15.5638 C.3     1  UNL1        0.0065
      5 C          66.6111   93.4269   14.4570 C.3     1  UNL1        0.0277
      6 C          66.0912   93.2146   13.0662 C.ar    1  UNL1       -0.0073
      7 C          66.5123   94.1352   11.9594 C.ar    1  UNL1       -0.0015
      8 C          65.9924   93.9229   10.5685 C.ar    1  UNL1        0.0203
      9 C          65.0513   92.7899   10.2844 C.ar    1  UNL1        0.0985
     10 N          64.6301   91.8693   11.3912 N.ar    1  UNL1       -0.2471
     11 C          65.1501   92.0816   12.7821 C.ar    1  UNL1        0.0695
     12 C          62.3519   90.3104   13.2751 C.3     1  UNL1        0.0886
     13 C          60.3980   86.6881    7.7696 C.ar    1  UNL1       -0.0003
     14 C          61.5054   85.9580    8.4699 C.ar    1  UNL1       -0.0003
     15 C          62.1177   86.5365    9.7111 C.ar    1  UNL1       -0.0045
     16 C          61.6225   87.8450   10.2519 C.ar    1  UNL1       -0.0234
     17 C          60.5151   88.5751    9.5516 C.ar    1  UNL1       -0.0103
     18 C          59.9029   87.9967    8.3104 C.ar    1  UNL1       -0.0032
     19 C          60.0199   89.8837   10.0924 C.3     1  UNL1        0.0953
     20 N          60.6322   90.4622   11.3336 N.3     1  UNL1       -0.2934
     21 C          61.7396   89.7320   12.0339 C.3     1  UNL1        0.0748
     22 C          62.2348   88.4235   11.4931 C.3     1  UNL1        0.0432
     23 H          59.8773   90.5717   12.0107 H       1  UNL1        0.1236
     24 C          64.2824   88.6127   13.6504 C.3     1  UNL1        0.0738
     25 C          64.2716   87.8557   14.9453 C.3     1  UNL1        0.0347
     26 C          64.9787   86.5369   15.0492 C.3     1  UNL1        0.0736
     27 N          64.2309   85.2626   14.7904 N.3     1  UNL1       -0.2703
     28 C          64.6445   84.3663   13.6610 C.3     1  UNL1        0.0897
     29 C          63.8967   83.0921   13.4023 C.3     1  UNL1        0.0896
     30 N          62.7353   82.7140   14.2731 N.3     1  UNL1       -0.2716
     31 C          62.3217   83.6102   15.4025 C.3     1  UNL1        0.0896
     32 C          63.0695   84.8845   15.6612 C.3     1  UNL1        0.0897
     33 C          61.9875   81.4396   14.0143 C.3     1  UNL1        0.0577
     34 C          61.9633   80.0272   13.5101 C.3     1  UNL1        0.0173
     35 C          60.7166   80.6449   14.0705 C.3     1  UNL1        0.0173
@<TRIPOS>BOND
     1    13    14   ar
     2    14    15   ar
     3    15    16   ar
     4    16    17   ar
     5    17    18   ar
     6    17    19    1
     7    19    20    1
     8    20    21    1
     9    21    12    1
    10    12     1    1
    11     1    24    1
    12    24    25    1
    13    25    26    1
    14    26    27    1
    15    27    28    1
    16    28    29    1
    17    29    30    1
    18    30    33    1
    19    33    34    1
    20    34    35    1
    21    30    31    1
    22    31    32    1
    23     2     1    1
    24     2     3    1
    25     3     4    1
    26     4     5    1
    27     5     6    1
    28     6     7   ar
    29     7     8   ar
    30     8     9   ar
    31     9    10   ar
    32    10    11   ar
    33    21    22    1
    34    18    13   ar
    35    32    27    1
    36    11     2    1
    37    22    16    1
    38    35    33    1
    39    11     6   ar
    40    20    23    1
@<TRIPOS>MOLECULE
*****
 35 40 0 0 0
SMALL
GASTEIGER

@<TRIPOS>ATOM
      1 N          63.9425   90.0339   13.8009 N.3     1  UNL1       -0.2679
      2 C          64.8600   91.2022   14.0089 C.3     1  UNL1        0.0978
      3 C          65.4262   91.4781   15.3703 C.3     1  UNL1        0.0224
      4 C          66.3437   92.6465   15.5782 C.3     1  UNL1        0.0065
      5 C          66.6950   93.5388   14.4249 C.3     1  UNL1        0.0277
      6 C          66.1288   93.2628   13.0635 C.ar    1  UNL1       -0.0073
      7 C          66.4801   94.1552   11.9102 C.ar    1  UNL1       -0.0015
      8 C          65.9140   93.8792   10.5488 C.ar    1  UNL1        0.0203
      9 C          64.9965   92.7109   10.3408 C.ar    1  UNL1        0.0985
     10 N          64.6452   91.8186   11.4942 N.ar    1  UNL1       -0.2471
     11 C          65.2114   92.0946   12.8555 C.ar    1  UNL1        0.0695
     12 C          62.6748   90.2059   13.0177 C.3     1  UNL1        0.0886
     13 C          60.1455   86.4480    7.8475 C.ar    1  UNL1       -0.0003
     14 C          59.6314   87.8523    7.7311 C.ar    1  UNL1       -0.0003
     15 C          60.0344   88.8848    8.7419 C.ar    1  UNL1       -0.0045
     16 C          60.9516   88.5129    9.8690 C.ar    1  UNL1       -0.0234
     17 C          61.4657   87.1086    9.9854 C.ar    1  UNL1       -0.0103
     18 C          61.0627   86.0762    8.9746 C.ar    1  UNL1       -0.0032
     19 C          62.3829   86.7367   11.1126 C.3     1  UNL1        0.0953
     20 N          62.7859   87.7691   12.1234 N.3     1  UNL1       -0.2934
     21 C          62.2718   89.1735   12.0069 C.3     1  UNL1        0.0748
     22 C          61.3546   89.5453   10.8798 C.3     1  UNL1        0.0432
     23 H          63.8041   87.8252   12.0971 H       1  UNL1        0.1236
     24 C          64.2927   88.6935   14.3762 C.3     1  UNL1        0.0738
     25 C          63.5562   88.1769   15.5764 C.3     1  UNL1        0.0347
     26 C          63.9111   86.8396   16.1558 C.3     1  UNL1        0.0736
     27 N          63.6529   85.5889   15.3689 N.3     1  UNL1       -0.2703
     28 C          62.5072   84.6938   15.7378 C.3     1  UNL1        0.0897
     29 C          62.2492   83.4431   14.9509 C.3     1  UNL1        0.0896
     30 N          63.1368   83.0876   13.7952 N.3     1  UNL1       -0.2716
     31 C          64.2825   83.9827   13.4263 C.3     1  UNL1        0.0896
     32 C          64.5406   85.2334   14.2132 C.3     1  UNL1        0.0897
     33 C          62.8787   81.8369   13.0083 C.3     1  UNL1        0.0577
     34 C          62.4844   80.3904   12.9603 C.3     1  UNL1        0.0173
     35 C          62.8259   81.1171   11.6933 C.3     1  UNL1        0.0173
@<TRIPOS>BOND
     1    13    14   ar
     2    14    15   ar
     3    15    16   ar
     4    16    17   ar
     5    17    18   ar
     6    17    19    1
     7    19    20    1
     8    20    21    1
     9    21    12    1
    10    12     1    1
    11     1    24    1
    12    24    25    1
    13    25    26    1
    14    26    27    1
    15    27    28    1
    16    28    29    1
    17    29    30    1
    18    30    33    1
    19    33    34    1
    20    34    35    1
    21    30    31    1
    22    31    32    1
    23     2     1    1
    24     2     3    1
    25     3     4    1
    26     4     5    1
    27     5     6    1
    28     6     7   ar
    29     7     8   ar
    30     8     9   ar
    31     9    10   ar
    32    10    11   ar
    33    21    22    1
    34    18    13   ar
    35    32    27    1
    36    11     2    1
    37    22    16    1
    38    35    33    1
    39    11     6   ar
    40    20    23    1
@<TRIPOS>MOLECULE
*****
 35 40 0 0 0
SMALL
GASTEIGER

@<TRIPOS>ATOM
      1 N          63.3745   88.9503   13.7028 N.3     1  UNL1       -0.2679
      2 C          62.9213   89.1497   12.2869 C.3     1  UNL1        0.0978
      3 C          62.9043   90.5265   11.6917 C.3     1  UNL1        0.0224
      4 C          62.4512   90.7259   10.2757 C.3     1  UNL1        0.0065
      5 C          62.0151   89.5486    9.4550 C.3     1  UNL1        0.0277
      6 C          62.0321   88.1718   10.0501 C.ar    1  UNL1       -0.0073
      7 C          61.5960   86.9945    9.2294 C.ar    1  UNL1       -0.0015
      8 C          61.6130   85.6177    9.8246 C.ar    1  UNL1        0.0203
      9 C          62.0662   85.4182   11.2405 C.ar    1  UNL1        0.0985
     10 N          62.5023   86.5956   12.0612 N.ar    1  UNL1       -0.2471
     11 C          62.4852   87.9723   11.4661 C.ar    1  UNL1        0.0695
     12 C          63.1786   90.0411   14.7137 C.3     1  UNL1        0.0886
     13 C          69.0846   93.4551   15.5577 C.ar    1  UNL1       -0.0003
     14 C          69.1952   92.5742   14.3487 C.ar    1  UNL1       -0.0003
     15 C          68.0361   91.7152   13.9381 C.ar    1  UNL1       -0.0045
     16 C          66.7664   91.7371   14.7365 C.ar    1  UNL1       -0.0234
     17 C          66.6559   92.6181   15.9455 C.ar    1  UNL1       -0.0103
     18 C          67.8150   93.4771   16.3561 C.ar    1  UNL1       -0.0032
     19 C          65.3862   92.6400   16.7440 C.3     1  UNL1        0.0953
     20 N          64.2271   91.7810   16.3334 N.3     1  UNL1       -0.2934
     21 C          64.3377   90.9001   15.1243 C.3     1  UNL1        0.0748
     22 C          65.6073   90.8781   14.3259 C.3     1  UNL1        0.0432
     23 H          63.4393   92.4080   16.1698 H       1  UNL1        0.1236
     24 C          64.0235   87.6600   14.1079 C.3     1  UNL1        0.0738
     25 C          64.2007   87.3335   15.5611 C.3     1  UNL1        0.0347
     26 C          63.8080   85.9818   16.0794 C.3     1  UNL1        0.0736
     27 N          63.6134   84.8404   15.1257 N.3     1  UNL1       -0.2703
     28 C          64.7206   84.4439   14.1947 C.3     1  UNL1        0.0897
     29 C          64.5259   83.3026   13.2410 C.3     1  UNL1        0.0896
     30 N          63.2241   82.5577   13.2185 N.3     1  UNL1       -0.2716
     31 C          62.1170   82.9542   14.1495 C.3     1  UNL1        0.0896
     32 C          62.3116   84.0955   15.1031 C.3     1  UNL1        0.0897
     33 C          63.0295   81.4163   12.2648 C.3     1  UNL1        0.0577
     34 C          63.0513   80.8737   10.8666 C.3     1  UNL1        0.0173
     35 C          62.6707   79.9821   12.0112 C.3     1  UNL1        0.0173
@<TRIPOS>BOND
     1    13    14   ar
     2    14    15   ar
     3    15    16   ar
     4    16    17   ar
     5    17    18   ar
     6    17    19    1
     7    19    20    1
     8    20    21    1
     9    21    12    1
    10    12     1    1
    11     1    24    1
    12    24    25    1
    13    25    26    1
    14    26    27    1
    15    27    28    1
    16    28    29    1
    17    29    30    1
    18    30    33    1
    19    33    34    1
    20    34    35    1
    21    30    31    1
    22    31    32    1
    23     2     1    1
    24     2     3    1
    25     3     4    1
    26     4     5    1
    27     5     6    1
    28     6     7   ar
    29     7     8   ar
    30     8     9   ar
    31     9    10   ar
    32    10    11   ar
    33    21    22    1
    34    18    13   ar
    35    32    27    1
    36    11     2    1
    37    22    16    1
    38    35    33    1
    39    11     6   ar
    40    20    23    1
@<TRIPOS>MOLECULE
*****
 35 40 0 0 0
SMALL
GASTEIGER

@<TRIPOS>ATOM
      1 N          61.8421   87.5889   11.2809 N.3     1  UNL1       -0.2679
      2 C          60.9944   87.3195   10.0731 C.3     1  UNL1        0.0978
      3 C          59.6603   87.9898    9.9286 C.3     1  UNL1        0.0224
      4 C          58.8125   87.7205    8.7208 C.3     1  UNL1        0.0065
      5 C          59.2988   86.7808    7.6576 C.3     1  UNL1        0.0277
      6 C          60.6329   86.1105    7.8021 C.ar    1  UNL1       -0.0073
      7 C          61.1193   85.1709    6.7388 C.ar    1  UNL1       -0.0015
      8 C          62.4534   84.5006    6.8833 C.ar    1  UNL1        0.0203
      9 C          63.3011   84.7699    8.0911 C.ar    1  UNL1        0.0985
     10 N          62.8148   85.7096    9.1543 N.ar    1  UNL1       -0.2471
     11 C          61.4807   86.3799    9.0098 C.ar    1  UNL1        0.0695
     12 C          61.6499   88.8529   12.0655 C.3     1  UNL1        0.0886
     13 C          66.8002   93.1644   13.5268 C.ar    1  UNL1       -0.0003
     14 C          66.4847   92.3460   14.7436 C.ar    1  UNL1       -0.0003
     15 C          65.3915   91.3201   14.6947 C.ar    1  UNL1       -0.0045
     16 C          64.6139   91.1124   13.4290 C.ar    1  UNL1       -0.0234
     17 C          64.9294   91.9308   12.2121 C.ar    1  UNL1       -0.0103
     18 C          66.0225   92.9567   12.2610 C.ar    1  UNL1       -0.0032
     19 C          64.1517   91.7231   10.9463 C.3     1  UNL1        0.0953
     20 N          63.0586   90.6972   10.8974 N.3     1  UNL1       -0.2934
     21 C          62.7431   89.8788   12.1144 C.3     1  UNL1        0.0748
     22 C          63.5207   90.0865   13.3801 C.3     1  UNL1        0.0432
     23 H          63.3040   90.0405   10.1565 H       1  UNL1        0.1236
     24 C          62.8822   86.5943   11.7041 C.3     1  UNL1        0.0738
     25 C          63.1474   86.3609   13.1619 C.3     1  UNL1        0.0347
     26 C          63.8314   85.1025   13.6077 C.3     1  UNL1        0.0736
     27 N          63.6034   83.8206   12.8627 N.3     1  UNL1       -0.2703
     28 C          64.3455   83.5524   11.5870 C.3     1  UNL1        0.0897
     29 C          64.1175   82.2706   10.8421 C.3     1  UNL1        0.0896
     30 N          63.1475   81.2570   11.3728 N.3     1  UNL1       -0.2716
     31 C          62.4054   81.5252   12.6485 C.3     1  UNL1        0.0896
     32 C          62.6334   82.8070   13.3934 C.3     1  UNL1        0.0897
     33 C          62.9195   79.9752   10.6278 C.3     1  UNL1        0.0577
     34 C          62.7589   79.2366    9.3322 C.3     1  UNL1        0.0173
     35 C          62.6853   78.4936   10.6331 C.3     1  UNL1        0.0173
@<TRIPOS>BOND
     1    13    14   ar
     2    14    15   ar
     3    15    16   ar
     4    16    17   ar
     5    17    18   ar
     6    17    19    1
     7    19    20    1
     8    20    21    1
     9    21    12    1
    10    12     1    1
    11     1    24    1
    12    24    25    1
    13    25    26    1
    14    26    27    1
    15    27    28    1
    16    28    29    1
    17    29    30    1
    18    30    33    1
    19    33    34    1
    20    34    35    1
    21    30    31    1
    22    31    32    1
    23     2     1    1
    24     2     3    1
    25     3     4    1
    26     4     5    1
    27     5     6    1
    28     6     7   ar
    29     7     8   ar
    30     8     9   ar
    31     9    10   ar
    32    10    11   ar
    33    21    22    1
    34    18    13   ar
    35    32    27    1
    36    11     2    1
    37    22    16    1
    38    35    33    1
    39    11     6   ar
    40    20    23    1
@<TRIPOS>MOLECULE
*****
 35 40 0 0 0
SMALL
GASTEIGER

@<TRIPOS>ATOM
      1 N          63.4704   85.7920   13.6774 N.3     1  UNL1       -0.2679
      2 C          62.9474   84.3863   13.7003 C.3     1  UNL1        0.0978
      3 C          62.1233   83.9115   14.8603 C.3     1  UNL1        0.0224
      4 C          61.6003   82.5058   14.8832 C.3     1  UNL1        0.0065
      5 C          61.9014   81.5749   13.7462 C.3     1  UNL1        0.0277
      6 C          62.7254   82.0497   12.5863 C.ar    1  UNL1       -0.0073
      7 C          63.0265   81.1188   11.4493 C.ar    1  UNL1       -0.0015
      8 C          63.8506   81.5936   10.2893 C.ar    1  UNL1        0.0203
      9 C          64.3736   82.9993   10.2664 C.ar    1  UNL1        0.0985
     10 N          64.0725   83.9301   11.4034 N.ar    1  UNL1       -0.2471
     11 C          63.2484   83.4553   12.5633 C.ar    1  UNL1        0.0695
     12 C          63.6844   86.4913   12.3677 C.3     1  UNL1        0.0886
     13 C          58.7959   87.0795    7.5711 C.ar    1  UNL1       -0.0003
     14 C          59.7731   86.0225    7.1493 C.ar    1  UNL1       -0.0003
     15 C          60.9462   85.6935    8.0242 C.ar    1  UNL1       -0.0045
     16 C          61.1422   86.4214    9.3210 C.ar    1  UNL1       -0.0234
     17 C          60.1650   87.4784    9.7428 C.ar    1  UNL1       -0.0103
     18 C          58.9919   87.8074    8.8679 C.ar    1  UNL1       -0.0032
     19 C          60.3610   88.2064   11.0396 C.3     1  UNL1        0.0953
     20 N          61.5341   87.8774   11.9146 N.3     1  UNL1       -0.2934
     21 C          62.5112   86.8203   11.4927 C.3     1  UNL1        0.0748
     22 C          62.3153   86.0924   10.1960 C.3     1  UNL1        0.0432
     23 H          61.1564   87.5863   12.8163 H       1  UNL1        0.1236
     24 C          63.7794   86.4983   14.9641 C.3     1  UNL1        0.0738
     25 C          64.5627   87.7774   14.9480 C.3     1  UNL1        0.0347
     26 C          63.8465   89.0952   14.9236 C.3     1  UNL1        0.0736
     27 N          64.3753   90.2207   14.0847 N.3     1  UNL1       -0.2703
     28 C          63.7457   90.5274   12.7583 C.3     1  UNL1        0.0897
     29 C          64.2744   91.6529   11.9194 C.3     1  UNL1        0.0896
     30 N          65.4328   92.4717   12.4070 N.3     1  UNL1       -0.2716
     31 C          66.0624   92.1650   13.7335 C.3     1  UNL1        0.0896
     32 C          65.5337   91.0395   14.5723 C.3     1  UNL1        0.0897
     33 C          65.9616   93.5972   11.5681 C.3     1  UNL1        0.0577
     34 C          66.6258   94.0811   10.3133 C.3     1  UNL1        0.0173
     35 C          66.2131   95.0626   11.3699 C.3     1  UNL1        0.0173
@<TRIPOS>BOND
     1    13    14   ar
     2    14    15   ar
     3    15    16   ar
     4    16    17   ar
     5    17    18   ar
     6    17    19    1
     7    19    20    1
     8    20    21    1
     9    21    12    1
    10    12     1    1
    11     1    24    1
    12    24    25    1
    13    25    26    1
    14    26    27    1
    15    27    28    1
    16    28    29    1
    17    29    30    1
    18    30    33    1
    19    33    34    1
    20    34    35    1
    21    30    31    1
    22    31    32    1
    23     2     1    1
    24     2     3    1
    25     3     4    1
    26     4     5    1
    27     5     6    1
    28     6     7   ar
    29     7     8   ar
    30     8     9   ar
    31     9    10   ar
    32    10    11   ar
    33    21    22    1
    34    18    13   ar
    35    32    27    1
    36    11     2    1
    37    22    16    1
    38    35    33    1
    39    11     6   ar
    40    20    23    1
