@<TRIPOS>MOLECULE
*****
 57 61 0 0 0
SMALL
GASTEIGER

@<TRIPOS>ATOM
      1 C          62.5445   91.1514   11.0842 C.3     1  UNL1        0.0760
      2 C          63.5692   89.5646   12.8681 C.2     1  UNL1        0.2404
      3 O          63.3710   88.3990   11.9451 O.2     1  UNL1       -0.2733
      4 N          63.1559   90.9408   12.4377 N.am    1  UNL1       -0.3043
      5 H          63.2860   91.7059   13.0435 H       1  UNL1        0.1494
      6 C          64.1806   89.3541   14.2215 C.3     1  UNL1        0.1511
      7 N          63.3248   86.3735   16.6981 N.am    1  UNL1       -0.2567
      8 C          62.4978   86.1193   17.9234 C.3     1  UNL1        0.1168
      9 C          63.3392   87.7367   16.0725 C.2     1  UNL1        0.3046
     10 O          62.5265   88.8457   16.6721 O.2     1  UNL1       -0.2526
     11 N          64.1662   87.9909   14.8472 N.am    1  UNL1       -0.2824
     12 H          64.6996   87.2630   14.4536 H       1  UNL1        0.1514
     13 C          64.1375   85.2645   16.0985 C.3     1  UNL1        0.1413
     14 C          62.5340   82.5041   13.8907 C.ar    1  UNL1        0.0875
     15 N          63.0360   82.9942   15.2165 N.ar    1  UNL1       -0.2453
     16 C          63.5451   84.3930   15.0310 C.ar    1  UNL1        0.0858
     17 C          63.3575   84.7673   13.5906 C.ar    1  UNL1        0.0530
     18 S          62.7327   83.5999   12.8858 S.2     1  UNL1       -0.0705
     19 C          62.7182   80.1325   12.8461 C.3     1  UNL1        0.0069
     20 C          61.9379   81.1550   13.6177 C.3     1  UNL1        0.0465
     21 C          60.5614   80.8284   14.1164 C.3     1  UNL1        0.0069
     22 C          64.8064   90.5068   14.9494 C.3     1  UNL1        0.0463
     23 C          65.3646   91.6663   14.1788 C.3     1  UNL1        0.0745
     24 N          66.7407   92.1784   14.4861 N.3     1  UNL1       -0.2684
     25 C          66.9363   93.2026   15.5643 C.3     1  UNL1        0.1046
     26 C          68.3123   93.7146   15.8715 C.3     1  UNL1        0.1595
     27 O          69.4927   93.2023   15.1006 O.3     1  UNL1       -0.3508
     28 C          69.2970   92.1780   14.0224 C.3     1  UNL1        0.1595
     29 C          67.9210   91.6661   13.7151 C.3     1  UNL1        0.1046
     30 C          61.0790   90.9081   10.8772 C.3     1  UNL1        0.0216
     31 C          60.5489   89.5053   10.8449 C.3     1  UNL1        0.0217
     32 C          60.2652   88.8407    9.5303 C.3     1  UNL1        0.0792
     33 N          60.2556   89.6501    8.2675 N.am    1  UNL1       -0.2720
     34 C          59.2455   89.3585    7.1975 C.2     1  UNL1        0.4019
     35 O          58.2451   88.2576    7.3904 O.2     1  UNL1       -0.2264
     36 H          60.9121   90.3727    8.1408 H       1  UNL1        0.1527
     37 O          59.2358   90.1679    5.9346 O.3     1  UNL1       -0.4291
     38 C          60.5270   90.6505    5.3432 C.3     1  UNL1        0.2447
     39 C          60.5128   91.6606    4.2344 C.ar    1  UNL1        0.0714
     40 C          59.3619   92.5492    3.8658 C.ar    1  UNL1        0.1053
     41 N          59.7849   93.3973    2.7032 N.ar    1  UNL1       -0.2350
     42 C          61.1972   93.0330    2.3532 C.ar    1  UNL1        0.1343
     43 S          61.6471   91.9596    3.2995 S.2     1  UNL1       -0.0652
     44 C          59.9913   87.3669    9.4787 C.3     1  UNL1        0.0460
     45 C          60.9123   86.4590    8.7185 C.ar    1  UNL1       -0.0205
     46 C          62.3081   86.2211    9.2137 C.ar    1  UNL1       -0.0042
     47 C          63.2289   85.3133    8.4535 C.ar    1  UNL1       -0.0003
     48 C          62.7540   84.6434    7.1983 C.ar    1  UNL1       -0.0000
     49 C          61.3583   84.8814    6.7031 C.ar    1  UNL1       -0.0003
     50 C          60.4374   85.7892    7.4632 C.ar    1  UNL1       -0.0042
     51 C          63.3987   91.6053    9.9377 C.3     1  UNL1        0.0459
     52 C          64.6397   92.4066   10.1983 C.ar    1  UNL1       -0.0205
     53 C          64.5572   93.8996   10.3173 C.ar    1  UNL1       -0.0042
     54 C          65.7982   94.7008   10.5779 C.ar    1  UNL1       -0.0003
     55 C          67.1217   94.0091   10.7194 C.ar    1  UNL1       -0.0000
     56 C          67.2041   92.5161   10.6004 C.ar    1  UNL1       -0.0003
     57 C          65.9630   91.7148   10.3398 C.ar    1  UNL1       -0.0042
@<TRIPOS>BOND
     1    19    20    1
     2    20    21    1
     3    20    14    1
     4    14    15   ar
     5    15    16   ar
     6    16    13    1
     7    13     7    1
     8     7     8    1
     9     7     9   am
    10     9    10    2
    11     9    11   am
    12    11     6    1
    13     6    22    1
    14    22    23    1
    15    23    24    1
    16    24    25    1
    17    25    26    1
    18    26    27    1
    19    27    28    1
    20    28    29    1
    21     6     2    1
    22     2     3    2
    23     2     4   am
    24     4     1    1
    25     1    30    1
    26    30    31    1
    27    32    31    1
    28    32    44    1
    29    44    45    1
    30    45    46   ar
    31    46    47   ar
    32    47    48   ar
    33    48    49   ar
    34    49    50   ar
    35    32    33    1
    36    33    34   am
    37    34    35    2
    38    34    37    1
    39    37    38    1
    40    38    39    1
    41    39    40   ar
    42    40    41   ar
    43    41    42   ar
    44    42    43   ar
    45     1    51    1
    46    51    52    1
    47    52    53   ar
    48    53    54   ar
    49    54    55   ar
    50    55    56   ar
    51    56    57   ar
    52    16    17   ar
    53    17    18   ar
    54    18    14   ar
    55    29    24    1
    56    50    45   ar
    57    43    39   ar
    58    57    52   ar
    59    11    12    1
    60     4     5    1
    61    33    36    1
@<TRIPOS>MOLECULE
*****
 57 61 0 0 0
SMALL
GASTEIGER

@<TRIPOS>ATOM
      1 C          63.6300   89.4229   13.2419 C.3     1  UNL1        0.0760
      2 C          62.2601   87.6916   11.8722 C.2     1  UNL1        0.2404
      3 O          61.0433   88.5607   11.9907 O.2     1  UNL1       -0.2733
      4 N          63.5535   88.1227   12.4978 N.am    1  UNL1       -0.3043
      5 H          64.3521   87.5523   12.4200 H       1  UNL1        0.1494
      6 C          62.1836   86.3914   11.1281 C.3     1  UNL1        0.1511
      7 N          61.0445   85.4464    7.4458 N.am    1  UNL1       -0.2567
      8 C          61.5717   84.7111    6.2494 C.3     1  UNL1        0.1168
      9 C          61.8776   85.5513    8.6888 C.2     1  UNL1        0.3046
     10 O          63.2379   84.9209    8.7353 O.2     1  UNL1       -0.2526
     11 N          61.3505   86.2865    9.8852 N.am    1  UNL1       -0.2824
     12 H          60.4576   86.7002    9.8547 H       1  UNL1        0.1514
     13 C          59.6842   86.0767    7.3993 C.3     1  UNL1        0.1413
     14 C          59.0971   89.7689    6.3558 C.ar    1  UNL1        0.0875
     15 N          59.0692   88.3006    6.0498 N.ar    1  UNL1       -0.2453
     16 C          59.5513   87.5647    7.2648 C.ar    1  UNL1        0.0858
     17 C          59.8771   88.5781    8.3216 C.ar    1  UNL1        0.0530
     18 S          59.5964   89.9404    7.7599 S.2     1  UNL1       -0.0705
     19 C          57.2446   91.1286    5.1437 C.3     1  UNL1        0.0069
     20 C          58.6961   90.8719    5.4218 C.3     1  UNL1        0.0465
     21 C          59.7465   91.7182    4.7657 C.3     1  UNL1        0.0069
     22 C          62.9403   85.1961   11.6270 C.3     1  UNL1        0.0463
     23 C          62.4892   84.4881   12.8700 C.3     1  UNL1        0.0745
     24 N          62.4833   82.9889   12.9191 N.3     1  UNL1       -0.2684
     25 C          62.8820   82.1974   11.7089 C.3     1  UNL1        0.1046
     26 C          62.8761   80.6982   11.7580 C.3     1  UNL1        0.1595
     27 O          62.4715   79.9906   13.0172 O.3     1  UNL1       -0.3508
     28 C          62.0727   80.7821   14.2273 C.3     1  UNL1        0.1595
     29 C          62.0786   82.2813   14.1782 C.3     1  UNL1        0.1046
     30 C          63.2428   90.7014   12.5597 C.3     1  UNL1        0.0216
     31 C          63.9349   91.9827   12.9192 C.3     1  UNL1        0.0217
     32 C          65.2620   92.3163   12.3045 C.3     1  UNL1        0.0792
     33 N          65.3609   93.4077   11.2803 N.am    1  UNL1       -0.2720
     34 C          65.8821   94.7587   11.6720 C.2     1  UNL1        0.4019
     35 O          66.3043   95.0182   13.0877 O.2     1  UNL1       -0.2264
     36 H          65.0839   93.2374   10.3511 H       1  UNL1        0.1527
     37 O          65.9811   95.8502   10.6478 O.3     1  UNL1       -0.4291
     38 C          67.1268   95.8687    9.6798 C.3     1  UNL1        0.2447
     39 C          67.7682   94.5819    9.2522 C.ar    1  UNL1        0.0714
     40 C          67.8825   94.0792    7.8436 C.ar    1  UNL1        0.1053
     41 N          68.5930   92.7586    7.8790 N.ar    1  UNL1       -0.2350
     42 C          68.9178   92.4451    9.3094 C.ar    1  UNL1        0.1343
     43 S          68.4081   93.5721   10.1581 S.2     1  UNL1       -0.0652
     44 C          66.4899   91.5585   12.7140 C.3     1  UNL1        0.0460
     45 C          67.2428   91.9605   13.9476 C.ar    1  UNL1       -0.0205
     46 C          68.7304   92.1442   13.8919 C.ar    1  UNL1       -0.0042
     47 C          69.4831   92.5462   15.1255 C.ar    1  UNL1       -0.0003
     48 C          68.7483   92.7644   16.4148 C.ar    1  UNL1       -0.0000
     49 C          67.2606   92.5806   16.4705 C.ar    1  UNL1       -0.0003
     50 C          66.5079   92.1787   15.2370 C.ar    1  UNL1       -0.0042
     51 C          64.0938   89.4445   14.6683 C.3     1  UNL1        0.0459
     52 C          63.7761   88.2948   15.5777 C.ar    1  UNL1       -0.0205
     53 C          64.1925   86.9037   15.2016 C.ar    1  UNL1       -0.0042
     54 C          63.8748   85.7540   16.1111 C.ar    1  UNL1       -0.0003
     55 C          63.1406   85.9953   17.3967 C.ar    1  UNL1       -0.0000
     56 C          62.7242   87.3864   17.7729 C.ar    1  UNL1       -0.0003
     57 C          63.0420   88.5362   16.8633 C.ar    1  UNL1       -0.0042
@<TRIPOS>BOND
     1    19    20    1
     2    20    21    1
     3    20    14    1
     4    14    15   ar
     5    15    16   ar
     6    16    13    1
     7    13     7    1
     8     7     8    1
     9     7     9   am
    10     9    10    2
    11     9    11   am
    12    11     6    1
    13     6    22    1
    14    22    23    1
    15    23    24    1
    16    24    25    1
    17    25    26    1
    18    26    27    1
    19    27    28    1
    20    28    29    1
    21     6     2    1
    22     2     3    2
    23     2     4   am
    24     4     1    1
    25     1    30    1
    26    30    31    1
    27    32    31    1
    28    32    44    1
    29    44    45    1
    30    45    46   ar
    31    46    47   ar
    32    47    48   ar
    33    48    49   ar
    34    49    50   ar
    35    32    33    1
    36    33    34   am
    37    34    35    2
    38    34    37    1
    39    37    38    1
    40    38    39    1
    41    39    40   ar
    42    40    41   ar
    43    41    42   ar
    44    42    43   ar
    45     1    51    1
    46    51    52    1
    47    52    53   ar
    48    53    54   ar
    49    54    55   ar
    50    55    56   ar
    51    56    57   ar
    52    16    17   ar
    53    17    18   ar
    54    18    14   ar
    55    29    24    1
    56    50    45   ar
    57    43    39   ar
    58    57    52   ar
    59    11    12    1
    60     4     5    1
    61    33    36    1
@<TRIPOS>MOLECULE
*****
 57 61 0 0 0
SMALL
GASTEIGER

@<TRIPOS>ATOM
      1 C          62.0460   87.9267   10.9954 C.3     1  UNL1        0.0760
      2 C          60.4124   88.7640    9.1568 C.2     1  UNL1        0.2404
      3 O          59.9546   89.8662   10.0654 O.2     1  UNL1       -0.2733
      4 N          61.4580   87.7943    9.6217 N.am    1  UNL1       -0.3043
      5 H          61.7584   87.0709    9.0253 H       1  UNL1        0.1494
      6 C          59.8245   88.6315    7.7832 C.3     1  UNL1        0.1511
      7 N          59.4185   91.3335    4.9049 N.am    1  UNL1       -0.2567
      8 C          58.3257   92.0325    4.1518 C.3     1  UNL1        0.1168
      9 C          59.0751   90.3320    5.9675 C.2     1  UNL1        0.3046
     10 O          57.6389   90.0295    6.2770 O.2     1  UNL1       -0.2526
     11 N          60.1679   89.6330    6.7206 N.am    1  UNL1       -0.2824
     12 H          61.1105   89.8316    6.5175 H       1  UNL1        0.1514
     13 C          60.8547   91.6360    4.5954 C.3     1  UNL1        0.1413
     14 C          62.4706   93.2073    1.4355 C.ar    1  UNL1        0.0875
     15 N          62.5646   92.3694    2.6761 N.ar    1  UNL1       -0.2453
     16 C          61.2137   92.3538    3.3282 C.ar    1  UNL1        0.0858
     17 C          60.2851   93.1820    2.4905 C.ar    1  UNL1        0.0530
     18 S          61.0619   93.7094    1.3208 S.2     1  UNL1       -0.0705
     19 C          65.0124   93.4328    0.9475 C.3     1  UNL1        0.0069
     20 C          63.5892   93.4928    0.4777 C.3     1  UNL1        0.0465
     21 C          63.2845   93.8382   -0.9498 C.3     1  UNL1        0.0069
     22 C          58.8931   87.4975    7.4721 C.3     1  UNL1        0.0463
     23 C          59.2766   86.0923    7.8301 C.3     1  UNL1        0.0745
     24 N          60.5124   85.4789    7.2412 N.3     1  UNL1       -0.2684
     25 C          60.4276   84.7047    5.9592 C.3     1  UNL1        0.1046
     26 C          61.6633   84.0914    5.3704 C.3     1  UNL1        0.1595
     27 O          62.9838   84.2522    6.0635 O.3     1  UNL1       -0.3508
     28 C          63.0686   85.0263    7.3455 C.3     1  UNL1        0.1595
     29 C          61.8329   85.6396    7.9343 C.3     1  UNL1        0.1046
     30 C          62.9511   89.0790   11.3158 C.3     1  UNL1        0.0216
     31 C          62.6021   90.0192   12.4312 C.3     1  UNL1        0.0217
     32 C          63.6887   90.7434   13.1695 C.3     1  UNL1        0.0792
     33 N          64.6357   91.6362   12.4237 N.am    1  UNL1       -0.2720
     34 C          65.9988   91.9176   12.9830 C.2     1  UNL1        0.4019
     35 O          66.4149   91.3063   14.2880 O.2     1  UNL1       -0.2264
     36 H          64.3626   92.0374   11.5672 H       1  UNL1        0.1527
     37 O          66.9458   92.8104   12.2372 O.3     1  UNL1       -0.4291
     38 C          66.8494   92.9261   10.7448 C.3     1  UNL1        0.2447
     39 C          66.9773   94.2679   10.0868 C.ar    1  UNL1        0.0714
     40 C          67.5626   94.5331    8.7314 C.ar    1  UNL1        0.1053
     41 N          67.4894   96.0093    8.4755 N.ar    1  UNL1       -0.2350
     42 C          66.8589   96.6565    9.6728 C.ar    1  UNL1        0.1343
     43 S          66.5425   95.5803   10.6686 S.2     1  UNL1       -0.0652
     44 C          63.8283   90.5748   14.6534 C.3     1  UNL1        0.0460
     45 C          63.7560   89.2061   15.2628 C.ar    1  UNL1       -0.0205
     46 C          64.4227   88.0466   14.5839 C.ar    1  UNL1       -0.0042
     47 C          64.3504   86.6779   15.1933 C.ar    1  UNL1       -0.0003
     48 C          63.6113   86.4687   16.4817 C.ar    1  UNL1       -0.0000
     49 C          62.9446   87.6282   17.1607 C.ar    1  UNL1       -0.0003
     50 C          63.0169   88.9969   16.5512 C.ar    1  UNL1       -0.0042
     51 C          61.7287   86.9068   12.0485 C.3     1  UNL1        0.0459
     52 C          62.4038   85.5676   12.0231 C.ar    1  UNL1       -0.0205
     53 C          62.4790   84.7418   13.2731 C.ar    1  UNL1       -0.0042
     54 C          63.1541   83.4025   13.2478 C.ar    1  UNL1       -0.0003
     55 C          63.7540   82.8890   11.9724 C.ar    1  UNL1       -0.0000
     56 C          63.6788   83.7148   10.7224 C.ar    1  UNL1       -0.0003
     57 C          63.0036   85.0541   10.7478 C.ar    1  UNL1       -0.0042
@<TRIPOS>BOND
     1    19    20    1
     2    20    21    1
     3    20    14    1
     4    14    15   ar
     5    15    16   ar
     6    16    13    1
     7    13     7    1
     8     7     8    1
     9     7     9   am
    10     9    10    2
    11     9    11   am
    12    11     6    1
    13     6    22    1
    14    22    23    1
    15    23    24    1
    16    24    25    1
    17    25    26    1
    18    26    27    1
    19    27    28    1
    20    28    29    1
    21     6     2    1
    22     2     3    2
    23     2     4   am
    24     4     1    1
    25     1    30    1
    26    30    31    1
    27    32    31    1
    28    32    44    1
    29    44    45    1
    30    45    46   ar
    31    46    47   ar
    32    47    48   ar
    33    48    49   ar
    34    49    50   ar
    35    32    33    1
    36    33    34   am
    37    34    35    2
    38    34    37    1
    39    37    38    1
    40    38    39    1
    41    39    40   ar
    42    40    41   ar
    43    41    42   ar
    44    42    43   ar
    45     1    51    1
    46    51    52    1
    47    52    53   ar
    48    53    54   ar
    49    54    55   ar
    50    55    56   ar
    51    56    57   ar
    52    16    17   ar
    53    17    18   ar
    54    18    14   ar
    55    29    24    1
    56    50    45   ar
    57    43    39   ar
    58    57    52   ar
    59    11    12    1
    60     4     5    1
    61    33    36    1
@<TRIPOS>MOLECULE
*****
 57 61 0 0 0
SMALL
GASTEIGER

@<TRIPOS>ATOM
      1 C          63.8319   89.4292   13.5320 C.3     1  UNL1        0.0760
      2 C          62.0715   88.6083   11.8065 C.2     1  UNL1        0.2404
      3 O          61.0009   89.3585   12.5420 O.2     1  UNL1       -0.2733
      4 N          63.4870   88.6436   12.3015 N.am    1  UNL1       -0.3043
      5 H          64.1897   88.1513   11.8188 H       1  UNL1        0.1494
      6 C          61.7267   87.8228   10.5761 C.3     1  UNL1        0.1511
      7 N          59.6079   88.9237    7.4061 N.am    1  UNL1       -0.2567
      8 C          58.2999   88.5985    6.7480 C.3     1  UNL1        0.1168
      9 C          60.0133   88.2107    8.6620 C.2     1  UNL1        0.3046
     10 O          59.1106   87.1725    9.2597 O.2     1  UNL1       -0.2526
     11 N          61.3213   88.5358    9.3202 N.am    1  UNL1       -0.2824
     12 H          61.9138   89.2172    8.9279 H       1  UNL1        0.1514
     13 C          60.5106   89.9619    6.8084 C.3     1  UNL1        0.1413
     14 C          59.9950   92.1281    3.6292 C.ar    1  UNL1        0.0875
     15 N          60.8832   91.3513    4.5554 N.ar    1  UNL1       -0.2453
     16 C          60.0317   90.8013    5.6612 C.ar    1  UNL1        0.0858
     17 C          58.6175   91.2382    5.4183 C.ar    1  UNL1        0.0530
     18 S          58.5948   92.0582    4.1625 S.2     1  UNL1       -0.0705
     19 C          61.8889   93.0929    2.1352 C.3     1  UNL1        0.0069
     20 C          60.4307   92.8483    2.3877 C.3     1  UNL1        0.0465
     21 C          59.4082   93.3240    1.3986 C.3     1  UNL1        0.0069
     22 C          61.7873   86.3242   10.6015 C.3     1  UNL1        0.0463
     23 C          62.1443   85.6094   11.8709 C.3     1  UNL1        0.0745
     24 N          62.7477   84.2372   11.8148 N.3     1  UNL1       -0.2684
     25 C          62.6258   83.3156   12.9920 C.3     1  UNL1        0.1046
     26 C          63.2292   81.9435   12.9358 C.3     1  UNL1        0.1595
     27 O          63.9545   81.4930   11.7026 O.3     1  UNL1       -0.3508
     28 C          64.0764   82.4146   10.5254 C.3     1  UNL1        0.1595
     29 C          63.4730   83.7867   10.5816 C.3     1  UNL1        0.1046
     30 C          63.3988   90.8601   13.6542 C.3     1  UNL1        0.0216
     31 C          63.6134   91.8087   12.5124 C.3     1  UNL1        0.0217
     32 C          65.0060   92.1910   12.1065 C.3     1  UNL1        0.0792
     33 N          65.2237   93.3278   11.1524 N.am    1  UNL1       -0.2720
     34 C          65.8069   94.6191   11.6449 C.2     1  UNL1        0.4019
     35 O          66.1724   94.7736   13.0914 O.2     1  UNL1       -0.2264
     36 H          64.9838   93.2264   10.2029 H       1  UNL1        0.1527
     37 O          66.0246   95.7559   10.6908 O.3     1  UNL1       -0.4291
     38 C          67.2413   95.7766    9.8138 C.3     1  UNL1        0.2447
     39 C          67.8471   94.4883    9.3412 C.ar    1  UNL1        0.0714
     40 C          67.9575   94.0368    7.9151 C.ar    1  UNL1        0.1053
     41 N          68.6276   92.6948    7.9042 N.ar    1  UNL1       -0.2350
     42 C          68.9313   92.3169    9.3237 C.ar    1  UNL1        0.1343
     43 S          68.4490   93.4253   10.2118 S.2     1  UNL1       -0.0652
     44 C          66.1808   91.4366   12.6547 C.3     1  UNL1        0.0460
     45 C          66.8814   91.9307   13.8856 C.ar    1  UNL1       -0.0205
     46 C          66.0979   92.2075   15.1344 C.ar    1  UNL1       -0.0042
     47 C          66.7984   92.7016   16.3652 C.ar    1  UNL1       -0.0003
     48 C          68.2825   92.9188   16.3473 C.ar    1  UNL1       -0.0000
     49 C          69.0660   92.6420   15.0985 C.ar    1  UNL1       -0.0003
     50 C          68.3654   92.1480   13.8677 C.ar    1  UNL1       -0.0042
     51 C          64.6099   88.7838   14.6402 C.3     1  UNL1        0.0459
     52 C          63.9486   87.7755   15.5324 C.ar    1  UNL1       -0.0205
     53 C          63.2052   88.2283   16.7540 C.ar    1  UNL1       -0.0042
     54 C          62.5439   87.2201   17.6462 C.ar    1  UNL1       -0.0003
     55 C          62.6260   85.7590   17.3169 C.ar    1  UNL1       -0.0000
     56 C          63.3694   85.3061   16.0953 C.ar    1  UNL1       -0.0003
     57 C          64.0308   86.3145   15.2031 C.ar    1  UNL1       -0.0042
@<TRIPOS>BOND
     1    19    20    1
     2    20    21    1
     3    20    14    1
     4    14    15   ar
     5    15    16   ar
     6    16    13    1
     7    13     7    1
     8     7     8    1
     9     7     9   am
    10     9    10    2
    11     9    11   am
    12    11     6    1
    13     6    22    1
    14    22    23    1
    15    23    24    1
    16    24    25    1
    17    25    26    1
    18    26    27    1
    19    27    28    1
    20    28    29    1
    21     6     2    1
    22     2     3    2
    23     2     4   am
    24     4     1    1
    25     1    30    1
    26    30    31    1
    27    32    31    1
    28    32    44    1
    29    44    45    1
    30    45    46   ar
    31    46    47   ar
    32    47    48   ar
    33    48    49   ar
    34    49    50   ar
    35    32    33    1
    36    33    34   am
    37    34    35    2
    38    34    37    1
    39    37    38    1
    40    38    39    1
    41    39    40   ar
    42    40    41   ar
    43    41    42   ar
    44    42    43   ar
    45     1    51    1
    46    51    52    1
    47    52    53   ar
    48    53    54   ar
    49    54    55   ar
    50    55    56   ar
    51    56    57   ar
    52    16    17   ar
    53    17    18   ar
    54    18    14   ar
    55    29    24    1
    56    50    45   ar
    57    43    39   ar
    58    57    52   ar
    59    11    12    1
    60     4     5    1
    61    33    36    1
@<TRIPOS>MOLECULE
*****
 57 61 0 0 0
SMALL
GASTEIGER

@<TRIPOS>ATOM
      1 C          62.4664   90.2397   10.4651 C.3     1  UNL1        0.0760
      2 C          60.4985   89.7283    8.8476 C.2     1  UNL1        0.2404
      3 O          59.5213   89.9749    9.9585 O.2     1  UNL1       -0.2733
      4 N          61.9710   89.8608    9.1008 N.am    1  UNL1       -0.3043
      5 H          62.6124   89.6989    8.3716 H       1  UNL1        0.1494
      6 C          60.0033   89.3494    7.4834 C.3     1  UNL1        0.1511
      7 N          60.0624   91.6775    4.2699 N.am    1  UNL1       -0.2567
      8 C          59.1248   92.5375    3.4755 C.3     1  UNL1        0.1168
      9 C          59.5641   90.9435    5.4794 C.2     1  UNL1        0.3046
     10 O          58.1282   91.0695    5.8944 O.2     1  UNL1       -0.2526
     11 N          60.5016   90.0834    6.2739 N.am    1  UNL1       -0.2824
     12 H          61.4441   90.0007    6.0015 H       1  UNL1        0.1514
     13 C          61.4983   91.5515    3.8549 C.3     1  UNL1        0.1413
     14 C          62.1142   93.0413    0.3241 C.ar    1  UNL1        0.0875
     15 N          61.2778   92.2475    1.2835 N.ar    1  UNL1       -0.2453
     16 C          61.9812   92.2318    2.6083 C.ar    1  UNL1        0.0858
     17 C          63.2522   93.0158    2.4677 C.ar    1  UNL1        0.0530
     18 S          63.3344   93.5161    1.0559 S.2     1  UNL1       -0.0705
     19 C          62.8883   93.5998   -2.0922 C.3     1  UNL1        0.0069
     20 C          61.7876   93.3125   -1.1146 C.3     1  UNL1        0.0465
     21 C          60.3603   93.2966   -1.5756 C.3     1  UNL1        0.0069
     22 C          59.0097   88.2363    7.3286 C.3     1  UNL1        0.0463
     23 C          59.2476   86.9190    8.0054 C.3     1  UNL1        0.0745
     24 N          60.4599   86.1062    7.6593 N.3     1  UNL1       -0.2684
     25 C          61.7314   86.2887    8.4337 C.3     1  UNL1        0.1046
     26 C          62.9436   85.4759    8.0876 C.3     1  UNL1        0.1595
     27 O          62.8843   84.4805    6.9670 O.3     1  UNL1       -0.3508
     28 C          61.6127   84.2980    6.1925 C.3     1  UNL1        0.1595
     29 C          60.4006   85.1108    6.5387 C.3     1  UNL1        0.1046
     30 C          63.4893   91.3263   10.6165 C.3     1  UNL1        0.0216
     31 C          63.6264   92.0505   11.9229 C.3     1  UNL1        0.0217
     32 C          64.8536   91.8558   12.7632 C.3     1  UNL1        0.0792
     33 N          65.0154   90.6054   13.5759 N.am    1  UNL1       -0.2720
     34 C          64.3369   90.4839   14.9082 C.2     1  UNL1        0.4019
     35 O          63.4967   91.6126   15.4278 O.2     1  UNL1       -0.2264
     36 H          65.5669   89.8646   13.2349 H       1  UNL1        0.1527
     37 O          64.4987   89.2335   15.7210 O.3     1  UNL1       -0.4291
     38 C          63.3374   88.6890   16.4986 C.3     1  UNL1        0.2447
     39 C          63.1083   87.2081   16.5661 C.ar    1  UNL1        0.0714
     40 C          61.9648   86.5233   17.2543 C.ar    1  UNL1        0.1053
     41 N          62.1322   85.0440   17.0707 N.ar    1  UNL1       -0.2350
     42 C          63.3790   84.8146   16.2691 C.ar    1  UNL1        0.1343
     43 S          63.9823   86.1520   15.9572 S.2     1  UNL1       -0.0652
     44 C          65.9189   92.9113   12.7908 C.3     1  UNL1        0.0460
     45 C          66.5691   93.3543   11.5137 C.ar    1  UNL1       -0.0205
     46 C          67.4102   92.3928   10.7275 C.ar    1  UNL1       -0.0042
     47 C          68.0603   92.8358    9.4504 C.ar    1  UNL1       -0.0003
     48 C          67.8695   94.2403    8.9595 C.ar    1  UNL1       -0.0000
     49 C          67.0285   95.2018    9.7457 C.ar    1  UNL1       -0.0003
     50 C          66.3783   94.7588   11.0228 C.ar    1  UNL1       -0.0042
     51 C          61.9387   89.5321   11.6779 C.3     1  UNL1        0.0459
     52 C          62.1837   88.0629   11.8548 C.ar    1  UNL1       -0.0205
     53 C          63.3725   87.5897   12.6377 C.ar    1  UNL1       -0.0042
     54 C          63.6174   86.1205   12.8146 C.ar    1  UNL1       -0.0003
     55 C          62.6736   85.1244   12.2088 C.ar    1  UNL1       -0.0000
     56 C          61.4848   85.5976   11.4259 C.ar    1  UNL1       -0.0003
     57 C          61.2398   87.0669   11.2490 C.ar    1  UNL1       -0.0042
@<TRIPOS>BOND
     1    19    20    1
     2    20    21    1
     3    20    14    1
     4    14    15   ar
     5    15    16   ar
     6    16    13    1
     7    13     7    1
     8     7     8    1
     9     7     9   am
    10     9    10    2
    11     9    11   am
    12    11     6    1
    13     6    22    1
    14    22    23    1
    15    23    24    1
    16    24    25    1
    17    25    26    1
    18    26    27    1
    19    27    28    1
    20    28    29    1
    21     6     2    1
    22     2     3    2
    23     2     4   am
    24     4     1    1
    25     1    30    1
    26    30    31    1
    27    32    31    1
    28    32    44    1
    29    44    45    1
    30    45    46   ar
    31    46    47   ar
    32    47    48   ar
    33    48    49   ar
    34    49    50   ar
    35    32    33    1
    36    33    34   am
    37    34    35    2
    38    34    37    1
    39    37    38    1
    40    38    39    1
    41    39    40   ar
    42    40    41   ar
    43    41    42   ar
    44    42    43   ar
    45     1    51    1
    46    51    52    1
    47    52    53   ar
    48    53    54   ar
    49    54    55   ar
    50    55    56   ar
    51    56    57   ar
    52    16    17   ar
    53    17    18   ar
    54    18    14   ar
    55    29    24    1
    56    50    45   ar
    57    43    39   ar
    58    57    52   ar
    59    11    12    1
    60     4     5    1
    61    33    36    1
@<TRIPOS>MOLECULE
*****
 57 61 0 0 0
SMALL
GASTEIGER

@<TRIPOS>ATOM
      1 C          62.2694   86.4990   11.2266 C.3     1  UNL1        0.0760
      2 C          62.7461   88.9551   11.9268 C.2     1  UNL1        0.2404
      3 O          62.3950   88.6187   13.3458 O.2     1  UNL1       -0.2733
      4 N          62.6833   87.8953   10.8672 N.am    1  UNL1       -0.3043
      5 H          62.9138   88.1161    9.9359 H       1  UNL1        0.1494
      6 C          63.1600   90.3513   11.5674 C.3     1  UNL1        0.1511
      7 N          65.9871   91.9714   13.8329 N.am    1  UNL1       -0.2567
      8 C          66.1476   92.5421   15.2108 C.3     1  UNL1        0.1168
      9 C          64.6538   91.4467   13.3891 C.2     1  UNL1        0.3046
     10 O          63.4811   91.4926   14.3231 O.2     1  UNL1       -0.2526
     11 N          64.4933   90.8760   12.0112 N.am    1  UNL1       -0.2824
     12 H          65.2630   90.8459   11.3982 H       1  UNL1        0.1514
     13 C          67.1599   91.9255   12.8989 C.3     1  UNL1        0.1413
     14 C          66.8315   94.6612   10.1651 C.ar    1  UNL1        0.0875
     15 N          66.5801   94.1639   11.5578 N.ar    1  UNL1       -0.2453
     16 C          67.1791   92.7937   11.6759 C.ar    1  UNL1        0.0858
     17 C          67.8006   92.4443   10.3562 C.ar    1  UNL1        0.0530
     18 S          67.5858   93.5984    9.4225 S.2     1  UNL1       -0.0705
     19 C          65.4567   96.8543   10.3889 C.3     1  UNL1        0.0069
     20 C          66.4036   95.9883    9.6122 C.3     1  UNL1        0.0465
     21 C          66.9226   96.4493    8.2825 C.3     1  UNL1        0.0069
     22 C          62.2406   91.2229   10.7641 C.3     1  UNL1        0.0463
     23 C          60.7634   90.9626   10.7718 C.3     1  UNL1        0.0745
     24 N          60.1795   89.9272    9.8569 N.3     1  UNL1       -0.2684
     25 C          59.4204   88.7656   10.4262 C.3     1  UNL1        0.1046
     26 C          58.8365   87.7303    9.5113 C.3     1  UNL1        0.1595
     27 O          59.0117   87.8567    8.0269 O.3     1  UNL1       -0.3508
     28 C          59.7708   89.0183    7.4575 C.3     1  UNL1        0.1595
     29 C          60.3547   90.0536    8.3725 C.3     1  UNL1        0.1046
     30 C          62.8229   85.8462   12.4585 C.3     1  UNL1        0.0216
     31 C          63.9190   84.8291   12.3402 C.3     1  UNL1        0.0217
     32 C          64.4929   84.1981   13.5741 C.3     1  UNL1        0.0792
     33 N          64.3576   82.7203   13.7930 N.am    1  UNL1       -0.2720
     34 C          63.0666   82.1529   14.3045 C.2     1  UNL1        0.4019
     35 O          61.9110   83.0633   14.5970 O.2     1  UNL1       -0.2264
     36 H          65.1161   82.1228   13.6010 H       1  UNL1        0.1527
     37 O          62.9314   80.6751   14.5233 O.3     1  UNL1       -0.4291
     38 C          62.1971   79.8329   13.5227 C.3     1  UNL1        0.2447
     39 C          62.5525   79.9159   12.0677 C.ar    1  UNL1        0.0714
     40 C          62.8985   81.1661   11.3146 C.ar    1  UNL1        0.1053
     41 N          63.1842   80.7861    9.8919 N.ar    1  UNL1       -0.2350
     42 C          63.0148   79.3011    9.7658 C.ar    1  UNL1        0.1343
     43 S          62.6244   78.7632   11.1105 S.2     1  UNL1       -0.0652
     44 C          65.2020   85.0448   14.5891 C.3     1  UNL1        0.0460
     45 C          64.4224   85.9932   15.4510 C.ar    1  UNL1       -0.0205
     46 C          63.5636   85.4644   16.5613 C.ar    1  UNL1       -0.0042
     47 C          62.7841   86.4129   17.4232 C.ar    1  UNL1       -0.0003
     48 C          62.8634   87.8900   17.1747 C.ar    1  UNL1       -0.0000
     49 C          63.7222   88.4188   16.0644 C.ar    1  UNL1       -0.0003
     50 C          64.5017   87.4703   15.2026 C.ar    1  UNL1       -0.0042
     51 C          61.3020   85.7555   10.3540 C.3     1  UNL1        0.0459
     52 C          61.6846   85.3924    8.9499 C.ar    1  UNL1       -0.0205
     53 C          63.1068   85.0414    8.6270 C.ar    1  UNL1       -0.0042
     54 C          63.4894   84.6782    7.2229 C.ar    1  UNL1       -0.0003
     55 C          62.4499   84.6661    6.1415 C.ar    1  UNL1       -0.0000
     56 C          61.0277   85.0171    6.4644 C.ar    1  UNL1       -0.0003
     57 C          60.6451   85.3802    7.8686 C.ar    1  UNL1       -0.0042
@<TRIPOS>BOND
     1    19    20    1
     2    20    21    1
     3    20    14    1
     4    14    15   ar
     5    15    16   ar
     6    16    13    1
     7    13     7    1
     8     7     8    1
     9     7     9   am
    10     9    10    2
    11     9    11   am
    12    11     6    1
    13     6    22    1
    14    22    23    1
    15    23    24    1
    16    24    25    1
    17    25    26    1
    18    26    27    1
    19    27    28    1
    20    28    29    1
    21     6     2    1
    22     2     3    2
    23     2     4   am
    24     4     1    1
    25     1    30    1
    26    30    31    1
    27    32    31    1
    28    32    44    1
    29    44    45    1
    30    45    46   ar
    31    46    47   ar
    32    47    48   ar
    33    48    49   ar
    34    49    50   ar
    35    32    33    1
    36    33    34   am
    37    34    35    2
    38    34    37    1
    39    37    38    1
    40    38    39    1
    41    39    40   ar
    42    40    41   ar
    43    41    42   ar
    44    42    43   ar
    45     1    51    1
    46    51    52    1
    47    52    53   ar
    48    53    54   ar
    49    54    55   ar
    50    55    56   ar
    51    56    57   ar
    52    16    17   ar
    53    17    18   ar
    54    18    14   ar
    55    29    24    1
    56    50    45   ar
    57    43    39   ar
    58    57    52   ar
    59    11    12    1
    60     4     5    1
    61    33    36    1
@<TRIPOS>MOLECULE
*****
 57 61 0 0 0
SMALL
GASTEIGER

@<TRIPOS>ATOM
      1 C          61.7286   88.3534   11.3272 C.3     1  UNL1        0.0760
      2 C          63.3040   90.0642   12.4854 C.2     1  UNL1        0.2404
      3 O          62.8677   91.1223   11.5158 O.2     1  UNL1       -0.2733
      4 N          62.7345   88.6798   12.3911 N.am    1  UNL1       -0.3043
      5 H          63.0209   87.9853   13.0274 H       1  UNL1        0.1494
      6 C          64.3099   90.3905   13.5492 C.3     1  UNL1        0.1511
      7 N          66.8641   93.3135   14.3750 N.am    1  UNL1       -0.2567
      8 C          68.1512   93.5185   15.1175 C.3     1  UNL1        0.1168
      9 C          66.2305   91.9545   14.3334 C.2     1  UNL1        0.3046
     10 O          66.8840   90.8005   15.0342 O.2     1  UNL1       -0.2526
     11 N          64.9435   91.7494   13.5908 N.am    1  UNL1       -0.2824
     12 H          64.5146   92.5068   13.1308 H       1  UNL1        0.1514
     13 C          66.2106   94.4674   13.6741 C.3     1  UNL1        0.1413
     14 C          67.1981   94.3824    9.9214 C.ar    1  UNL1        0.0875
     15 N          67.2098   93.7759   11.2932 N.ar    1  UNL1       -0.2453
     16 C          66.4482   94.6872   12.2095 C.ar    1  UNL1        0.0858
     17 C          65.9658   95.8570   11.4038 C.ar    1  UNL1        0.0530
     18 S          66.4293   95.6686    9.9897 S.2     1  UNL1       -0.0705
     19 C          67.8078   94.5621    7.4023 C.3     1  UNL1        0.0069
     20 C          67.8422   93.8043    8.6963 C.3     1  UNL1        0.0465
     21 C          68.5208   92.4683    8.7652 C.3     1  UNL1        0.0069
     22 C          64.6823   89.3577   14.5714 C.3     1  UNL1        0.0463
     23 C          63.8172   89.1523   15.7795 C.3     1  UNL1        0.0745
     24 N          63.4459   87.7637   16.2087 N.3     1  UNL1       -0.2684
     25 C          62.6534   87.5537   17.4648 C.3     1  UNL1        0.1046
     26 C          62.2821   86.1652   17.8939 C.3     1  UNL1        0.1595
     27 O          62.7032   84.9868   17.0669 O.3     1  UNL1       -0.3508
     28 C          63.4957   85.1968   15.8108 C.3     1  UNL1        0.1595
     29 C          63.8670   86.5853   15.3817 C.3     1  UNL1        0.1046
     30 C          61.0823   87.0002   11.2959 C.3     1  UNL1        0.0216
     31 C          61.9130   85.7675   11.4964 C.3     1  UNL1        0.0217
     32 C          62.6759   85.1818   10.3452 C.3     1  UNL1        0.0792
     33 N          63.3179   83.8328   10.4798 N.am    1  UNL1       -0.2720
     34 C          64.1907   83.5322   11.6622 C.2     1  UNL1        0.4019
     35 O          64.4213   84.5805   12.7100 O.2     1  UNL1       -0.2264
     36 H          63.1666   83.1448    9.7921 H       1  UNL1        0.1527
     37 O          64.8327   82.1832   11.7968 O.3     1  UNL1       -0.4291
     38 C          64.5598   81.3401   13.0070 C.3     1  UNL1        0.2447
     39 C          63.1500   81.1382   13.4780 C.ar    1  UNL1        0.0714
     40 C          62.3455   82.1068   14.2932 C.ar    1  UNL1        0.1053
     41 N          60.9956   81.4995   14.5355 N.ar    1  UNL1       -0.2350
     42 C          60.9657   80.1555   13.8701 C.ar    1  UNL1        0.1343
     43 S          62.2972   79.9322   13.2165 S.2     1  UNL1       -0.0652
     44 C          62.7967   85.9450    9.0596 C.3     1  UNL1        0.0460
     45 C          62.3506   85.3194    7.7712 C.ar    1  UNL1       -0.0205
     46 C          60.8874   85.1833    7.4707 C.ar    1  UNL1       -0.0042
     47 C          60.4414   84.5578    6.1824 C.ar    1  UNL1       -0.0003
     48 C          61.4587   84.0683    5.1946 C.ar    1  UNL1       -0.0000
     49 C          62.9219   84.2044    5.4952 C.ar    1  UNL1       -0.0003
     50 C          63.3679   84.8300    6.7835 C.ar    1  UNL1       -0.0042
     51 C          61.3690   89.3804   10.2947 C.3     1  UNL1        0.0459
     52 C          60.4712   89.0117    9.1510 C.ar    1  UNL1       -0.0205
     53 C          59.6442   87.7622    9.2194 C.ar    1  UNL1       -0.0042
     54 C          58.7464   87.3935    8.0758 C.ar    1  UNL1       -0.0003
     55 C          58.6756   88.2743    6.8636 C.ar    1  UNL1       -0.0000
     56 C          59.5027   89.5238    6.7952 C.ar    1  UNL1       -0.0003
     57 C          60.4005   89.8925    7.9390 C.ar    1  UNL1       -0.0042
@<TRIPOS>BOND
     1    19    20    1
     2    20    21    1
     3    20    14    1
     4    14    15   ar
     5    15    16   ar
     6    16    13    1
     7    13     7    1
     8     7     8    1
     9     7     9   am
    10     9    10    2
    11     9    11   am
    12    11     6    1
    13     6    22    1
    14    22    23    1
    15    23    24    1
    16    24    25    1
    17    25    26    1
    18    26    27    1
    19    27    28    1
    20    28    29    1
    21     6     2    1
    22     2     3    2
    23     2     4   am
    24     4     1    1
    25     1    30    1
    26    30    31    1
    27    32    31    1
    28    32    44    1
    29    44    45    1
    30    45    46   ar
    31    46    47   ar
    32    47    48   ar
    33    48    49   ar
    34    49    50   ar
    35    32    33    1
    36    33    34   am
    37    34    35    2
    38    34    37    1
    39    37    38    1
    40    38    39    1
    41    39    40   ar
    42    40    41   ar
    43    41    42   ar
    44    42    43   ar
    45     1    51    1
    46    51    52    1
    47    52    53   ar
    48    53    54   ar
    49    54    55   ar
    50    55    56   ar
    51    56    57   ar
    52    16    17   ar
    53    17    18   ar
    54    18    14   ar
    55    29    24    1
    56    50    45   ar
    57    43    39   ar
    58    57    52   ar
    59    11    12    1
    60     4     5    1
    61    33    36    1
@<TRIPOS>MOLECULE
*****
 57 61 0 0 0
SMALL
GASTEIGER

@<TRIPOS>ATOM
      1 C          63.4836   88.8428   13.7905 C.3     1  UNL1        0.0760
      2 C          62.3060   89.9168   11.7387 C.2     1  UNL1        0.2404
      3 O          60.9746   89.7253   12.4025 O.2     1  UNL1       -0.2733
      4 N          63.5605   89.4755   12.4326 N.am    1  UNL1       -0.3043
      5 H          64.4343   89.6012   11.9969 H       1  UNL1        0.1494
      6 C          62.3830   90.5495   10.3808 C.3     1  UNL1        0.1511
      7 N          59.7427   88.8425    7.9591 N.am    1  UNL1       -0.2567
      8 C          59.3637   87.4727    7.4797 C.3     1  UNL1        0.1168
      9 C          60.8734   89.0111    8.9303 C.2     1  UNL1        0.3046
     10 O          61.6251   87.8098    9.4221 O.2     1  UNL1       -0.2526
     11 N          61.2524   90.3809    9.4097 N.am    1  UNL1       -0.2824
     12 H          60.7590   91.1694    9.0869 H       1  UNL1        0.1514
     13 C          58.9910   90.0438    7.4673 C.3     1  UNL1        0.1413
     14 C          60.7151   91.4746    4.2978 C.ar    1  UNL1        0.0875
     15 N          60.7644   90.6870    5.5734 N.ar    1  UNL1       -0.2453
     16 C          59.3943   90.7072    6.1838 C.ar    1  UNL1        0.0858
     17 C          58.4983   91.5072    5.2854 C.ar    1  UNL1        0.0530
     18 S          59.3146   91.9815    4.1197 S.2     1  UNL1       -0.0705
     19 C          61.7827   92.8037    2.3372 C.3     1  UNL1        0.0069
     20 C          61.8645   91.7134    3.3641 C.3     1  UNL1        0.0465
     21 C          63.0959   90.8618    3.4573 C.3     1  UNL1        0.0069
     22 C          63.5907   91.3509    9.9942 C.3     1  UNL1        0.0463
     23 C          64.2927   92.1914   11.0191 C.3     1  UNL1        0.0745
     24 N          65.5215   92.9643   10.6413 N.3     1  UNL1       -0.2684
     25 C          66.7490   92.2398   10.1740 C.3     1  UNL1        0.1046
     26 C          67.9778   93.0127    9.7962 C.3     1  UNL1        0.1595
     27 O          67.9791   94.5100    9.8857 O.3     1  UNL1       -0.3508
     28 C          66.7516   95.2345   10.3530 C.3     1  UNL1        0.1595
     29 C          65.5228   94.4616   10.7308 C.3     1  UNL1        0.1046
     30 C          63.1939   87.3767   13.9194 C.3     1  UNL1        0.0216
     31 C          64.3217   86.4006   14.0787 C.3     1  UNL1        0.0217
     32 C          64.1281   84.9624   13.6987 C.3     1  UNL1        0.0792
     33 N          64.3051   84.5332   12.2724 N.am    1  UNL1       -0.2720
     34 C          63.1738   84.6816   11.2986 C.2     1  UNL1        0.4019
     35 O          61.8656   85.2593   11.7512 O.2     1  UNL1       -0.2264
     36 H          65.1638   84.1540   11.9754 H       1  UNL1        0.1527
     37 O          63.3508   84.2523    9.8723 O.3     1  UNL1       -0.4291
     38 C          63.2135   85.2547    8.7649 C.3     1  UNL1        0.2447
     39 C          62.4561   84.8980    7.5201 C.ar    1  UNL1        0.0714
     40 C          60.9637   84.8780    7.3714 C.ar    1  UNL1        0.1053
     41 N          60.6434   84.4665    5.9650 N.ar    1  UNL1       -0.2350
     42 C          61.9380   84.2321    5.2445 C.ar    1  UNL1        0.1343
     43 S          63.0583   84.4988    6.2056 S.2     1  UNL1       -0.0652
     44 C          63.7576   83.9536   14.7451 C.3     1  UNL1        0.0460
     45 C          63.1324   82.6508   14.3428 C.ar    1  UNL1       -0.0205
     46 C          63.9746   81.5733   13.7267 C.ar    1  UNL1       -0.0042
     47 C          63.3493   80.2706   13.3244 C.ar    1  UNL1       -0.0003
     48 C          61.8818   80.0453   13.5383 C.ar    1  UNL1       -0.0000
     49 C          61.0396   81.1228   14.1544 C.ar    1  UNL1       -0.0003
     50 C          61.6649   82.4255   14.5567 C.ar    1  UNL1       -0.0042
     51 C          63.6963   89.6761   15.0194 C.3     1  UNL1        0.0459
     52 C          64.7586   90.7351   15.0328 C.ar    1  UNL1       -0.0205
     53 C          65.7684   90.7986   13.9254 C.ar    1  UNL1       -0.0042
     54 C          66.8306   91.8575   13.9388 C.ar    1  UNL1       -0.0003
     55 C          66.8831   92.8531   15.0597 C.ar    1  UNL1       -0.0000
     56 C          65.8733   92.7896   16.1670 C.ar    1  UNL1       -0.0003
     57 C          64.8110   91.7306   16.1536 C.ar    1  UNL1       -0.0042
@<TRIPOS>BOND
     1    19    20    1
     2    20    21    1
     3    20    14    1
     4    14    15   ar
     5    15    16   ar
     6    16    13    1
     7    13     7    1
     8     7     8    1
     9     7     9   am
    10     9    10    2
    11     9    11   am
    12    11     6    1
    13     6    22    1
    14    22    23    1
    15    23    24    1
    16    24    25    1
    17    25    26    1
    18    26    27    1
    19    27    28    1
    20    28    29    1
    21     6     2    1
    22     2     3    2
    23     2     4   am
    24     4     1    1
    25     1    30    1
    26    30    31    1
    27    32    31    1
    28    32    44    1
    29    44    45    1
    30    45    46   ar
    31    46    47   ar
    32    47    48   ar
    33    48    49   ar
    34    49    50   ar
    35    32    33    1
    36    33    34   am
    37    34    35    2
    38    34    37    1
    39    37    38    1
    40    38    39    1
    41    39    40   ar
    42    40    41   ar
    43    41    42   ar
    44    42    43   ar
    45     1    51    1
    46    51    52    1
    47    52    53   ar
    48    53    54   ar
    49    54    55   ar
    50    55    56   ar
    51    56    57   ar
    52    16    17   ar
    53    17    18   ar
    54    18    14   ar
    55    29    24    1
    56    50    45   ar
    57    43    39   ar
    58    57    52   ar
    59    11    12    1
    60     4     5    1
    61    33    36    1
@<TRIPOS>MOLECULE
*****
 57 61 0 0 0
SMALL
GASTEIGER

@<TRIPOS>ATOM
      1 C          62.3740   88.4724   10.7109 C.3     1  UNL1        0.0760
      2 C          60.4359   89.0968    9.0972 C.2     1  UNL1        0.2404
      3 O          59.8987   90.0591   10.1147 O.2     1  UNL1       -0.2733
      4 N          61.6735   88.3034    9.3953 N.am    1  UNL1       -0.3043
      5 H          62.0261   87.6718    8.7274 H       1  UNL1        0.1494
      6 C          59.7355   88.9278    7.7816 C.3     1  UNL1        0.1511
      7 N          58.6008   91.5332    5.0113 N.am    1  UNL1       -0.2567
      8 C          57.3529   91.9524    4.2924 C.3     1  UNL1        0.1168
      9 C          58.5442   90.4401    6.0370 C.2     1  UNL1        0.3046
     10 O          57.2397   89.7662    6.3437 O.2     1  UNL1       -0.2526
     11 N          59.7921   90.0209    6.7559 N.am    1  UNL1       -0.2824
     12 H          60.6483   90.4631    6.5546 H       1  UNL1        0.1514
     13 C          59.9053   92.2070    4.7046 C.3     1  UNL1        0.1413
     14 C          60.1625   93.0961    0.9351 C.ar    1  UNL1        0.0875
     15 N          59.3585   92.9341    2.1911 N.ar    1  UNL1       -0.2453
     16 C          60.2874   92.4893    3.2818 C.ar    1  UNL1        0.0858
     17 C          61.6652   92.3764    2.6998 C.ar    1  UNL1        0.0530
     18 S          61.5881   92.7514    1.2495 S.2     1  UNL1       -0.0705
     19 C          58.2528   94.1026   -0.5105 C.3     1  UNL1        0.0069
     20 C          59.6336   93.5270   -0.4008 C.3     1  UNL1        0.0465
     21 C          60.4855   93.3825   -1.6269 C.3     1  UNL1        0.0069
     22 C          58.9785   87.6657    7.4916 C.3     1  UNL1        0.0463
     23 C          59.4367   86.3642    8.0799 C.3     1  UNL1        0.0745
     24 N          60.6392   85.6678    7.5150 N.3     1  UNL1       -0.2684
     25 C          60.5187   84.8699    6.2506 C.3     1  UNL1        0.1046
     26 C          61.7211   84.1735    5.6858 C.3     1  UNL1        0.1595
     27 O          63.0441   84.2750    6.3854 O.3     1  UNL1       -0.3508
     28 C          63.1647   85.0729    7.6497 C.3     1  UNL1        0.1595
     29 C          61.9622   85.7693    8.2146 C.3     1  UNL1        0.1046
     30 C          63.4607   89.4960   10.8560 C.3     1  UNL1        0.0216
     31 C          63.1270   90.8840   11.3164 C.3     1  UNL1        0.0217
     32 C          63.8094   91.4587   12.5223 C.3     1  UNL1        0.0792
     33 N          63.1926   91.2994   13.8802 N.am    1  UNL1       -0.2720
     34 C          63.4320   90.0471   14.6706 C.2     1  UNL1        0.4019
     35 O          64.2883   88.9542   14.1029 O.2     1  UNL1       -0.2264
     36 H          62.6305   92.0168   14.2528 H       1  UNL1        0.1527
     37 O          62.8151   89.8879   16.0285 O.3     1  UNL1       -0.4291
     38 C          63.3511   88.8594   16.9798 C.3     1  UNL1        0.2447
     39 C          62.9049   87.4315   16.8701 C.ar    1  UNL1        0.0714
     40 C          61.5188   86.9187   17.1266 C.ar    1  UNL1        0.1053
     41 N          61.5238   85.4360   16.8997 N.ar    1  UNL1       -0.2350
     42 C          62.9129   85.0324   16.5029 C.ar    1  UNL1        0.1343
     43 S          63.7665   86.2657   16.4847 S.2     1  UNL1       -0.0652
     44 C          65.1087   92.1926   12.3701 C.3     1  UNL1        0.0460
     45 C          66.0930   92.2175   13.5018 C.ar    1  UNL1       -0.0205
     46 C          67.5177   91.8118   13.2658 C.ar    1  UNL1       -0.0042
     47 C          68.5019   91.8367   14.3974 C.ar    1  UNL1       -0.0003
     48 C          68.0614   92.2675   15.7651 C.ar    1  UNL1       -0.0000
     49 C          66.6368   92.6733   16.0011 C.ar    1  UNL1       -0.0003
     50 C          65.6526   92.6483   14.8695 C.ar    1  UNL1       -0.0042
     51 C          61.9876   87.6177   11.8815 C.3     1  UNL1        0.0459
     52 C          62.5428   86.2304   12.0129 C.ar    1  UNL1       -0.0205
     53 C          62.0544   85.1383   11.1080 C.ar    1  UNL1       -0.0042
     54 C          62.6096   83.7511   11.2393 C.ar    1  UNL1       -0.0003
     55 C          63.6531   83.4559   12.2756 C.ar    1  UNL1       -0.0000
     56 C          64.1415   84.5480   13.1805 C.ar    1  UNL1       -0.0003
     57 C          63.5863   85.9353   13.0491 C.ar    1  UNL1       -0.0042
@<TRIPOS>BOND
     1    19    20    1
     2    20    21    1
     3    20    14    1
     4    14    15   ar
     5    15    16   ar
     6    16    13    1
     7    13     7    1
     8     7     8    1
     9     7     9   am
    10     9    10    2
    11     9    11   am
    12    11     6    1
    13     6    22    1
    14    22    23    1
    15    23    24    1
    16    24    25    1
    17    25    26    1
    18    26    27    1
    19    27    28    1
    20    28    29    1
    21     6     2    1
    22     2     3    2
    23     2     4   am
    24     4     1    1
    25     1    30    1
    26    30    31    1
    27    32    31    1
    28    32    44    1
    29    44    45    1
    30    45    46   ar
    31    46    47   ar
    32    47    48   ar
    33    48    49   ar
    34    49    50   ar
    35    32    33    1
    36    33    34   am
    37    34    35    2
    38    34    37    1
    39    37    38    1
    40    38    39    1
    41    39    40   ar
    42    40    41   ar
    43    41    42   ar
    44    42    43   ar
    45     1    51    1
    46    51    52    1
    47    52    53   ar
    48    53    54   ar
    49    54    55   ar
    50    55    56   ar
    51    56    57   ar
    52    16    17   ar
    53    17    18   ar
    54    18    14   ar
    55    29    24    1
    56    50    45   ar
    57    43    39   ar
    58    57    52   ar
    59    11    12    1
    60     4     5    1
    61    33    36    1
