@<TRIPOS>MOLECULE
*****
 33 37 0 0 0
SMALL
GASTEIGER

@<TRIPOS>ATOM
      1 N          62.1843   88.2625   10.8225 N.ar    1  UNL1       -0.3142
      2 C          61.5456   86.9426   10.5066 C.ar    1  UNL1        0.1201
      3 N          61.9479   85.9662   11.5718 N.ar    1  UNL1       -0.2294
      4 C          62.8354   86.6827   12.5461 C.ar    1  UNL1        0.1174
      5 C          63.5293   86.2261   13.7951 C.ar    1  UNL1        0.1193
      6 N          64.3693   87.1888   14.5809 N.ar    1  UNL1       -0.2422
      7 C          64.5154   88.6080   14.1178 C.ar    1  UNL1        0.0830
      8 C          65.3555   89.5707   14.9037 C.ar    1  UNL1        0.0223
      9 C          65.5016   90.9899   14.4405 C.ar    1  UNL1        0.0394
     10 C          64.8077   91.4464   13.1915 C.ar    1  UNL1        0.1389
     11 C          63.9676   90.4837   12.4056 C.ar    1  UNL1        0.0399
     12 C          63.8215   89.0645   12.8688 C.ar    1  UNL1        0.0380
     13 C          62.9815   88.1019   12.0829 C.ar    1  UNL1        0.0817
     14 C          66.3417   91.9526   15.2264 C.ar    1  UNL1        0.0526
     15 C          67.7358   92.3885   14.8851 C.ar    1  UNL1        0.1007
     16 C          68.5346   91.9382   13.6980 C.3     1  UNL1        0.0557
     17 N          68.1908   93.3537   15.9393 N.ar    1  UNL1       -0.0817
     18 O          67.0779   93.5143   16.9321 O.2     1  UNL1       -0.3581
     19 C          65.9351   92.6484   16.4915 C.ar    1  UNL1        0.1545
     20 C          64.6171   92.5037   17.1929 C.3     1  UNL1        0.0754
     21 C          60.6599   86.6504    9.3318 C.3     1  UNL1        0.0619
     22 C          59.2926   87.2620    9.2528 C.3     1  UNL1        0.0396
     23 C          58.4070   86.9698    8.0779 C.3     1  UNL1        0.1426
     24 O          58.8886   86.0659    6.9821 O.3     1  UNL1       -0.3538
     25 C          60.2559   85.4543    7.0611 C.3     1  UNL1        0.1426
     26 C          61.1416   85.7465    8.2359 C.3     1  UNL1        0.0396
     27 C          62.0496   89.5220   10.0190 C.3     1  UNL1        0.1162
     28 C          63.2711   90.3106    9.6501 C.3     1  UNL1        0.0272
     29 C          60.6933   89.9929    9.5843 C.3     1  UNL1        0.1647
     30 C          59.4342   90.0469   11.8561 C.3     1  UNL1        0.1742
     31 O          59.7984   90.7021   10.5569 O.3     1  UNL1       -0.3491
     32 O          64.9538   92.8656   12.7283 O.3     1  UNL1       -0.4714
     33 C          65.7331   93.1720   11.4838 C.3     1  UNL1        0.2525
@<TRIPOS>BOND
     1    30    31    1
     2    31    29    1
     3    29    27    1
     4    27    28    1
     5    27     1    1
     6     1     2   ar
     7     2    21    1
     8    21    22    1
     9    22    23    1
    10    23    24    1
    11    24    25    1
    12    25    26    1
    13     2     3   ar
    14     3     4   ar
    15     4     5   ar
    16     5     6   ar
    17     6     7   ar
    18     7     8   ar
    19     8     9   ar
    20     9    14    1
    21    14    15   ar
    22    15    16    1
    23    15    17   ar
    24    17    18   ar
    25    18    19   ar
    26    19    20    1
    27     9    10   ar
    28    10    32    1
    29    32    33    1
    30    10    11   ar
    31    11    12   ar
    32    12    13   ar
    33    13     1   ar
    34    26    21    1
    35    13     4   ar
    36    12     7   ar
    37    19    14   ar
@<TRIPOS>MOLECULE
*****
 33 37 0 0 0
SMALL
GASTEIGER

@<TRIPOS>ATOM
      1 N          62.1829   88.2771   10.8127 N.ar    1  UNL1       -0.3142
      2 C          61.5371   86.9594   10.5018 C.ar    1  UNL1        0.1201
      3 N          61.9461   85.9810   11.5627 N.ar    1  UNL1       -0.2294
      4 C          62.8448   86.6940   12.5292 C.ar    1  UNL1        0.1174
      5 C          63.5488   86.2343   13.7714 C.ar    1  UNL1        0.1193
      6 N          64.3990   87.1938   14.5501 N.ar    1  UNL1       -0.2422
      7 C          64.5454   88.6128   14.0866 C.ar    1  UNL1        0.0830
      8 C          65.3957   89.5723   14.8654 C.ar    1  UNL1        0.0223
      9 C          65.5421   90.9914   14.4018 C.ar    1  UNL1        0.0394
     10 C          64.8381   91.4510   13.1595 C.ar    1  UNL1        0.1389
     11 C          63.9878   90.4915   12.3808 C.ar    1  UNL1        0.0399
     12 C          63.8415   89.0725   12.8443 C.ar    1  UNL1        0.0380
     13 C          62.9912   88.1130   12.0656 C.ar    1  UNL1        0.0817
     14 C          66.3924   91.9508   15.1806 C.ar    1  UNL1        0.0526
     15 C          66.0011   92.6442   16.4518 C.ar    1  UNL1        0.1007
     16 C          64.6908   92.5000   17.1675 C.3     1  UNL1        0.0557
     17 N          67.1501   93.5073   16.8817 N.ar    1  UNL1       -0.0817
     18 O          68.2516   93.3472   15.8761 O.2     1  UNL1       -0.3581
     19 C          67.7833   92.3853   14.8247 C.ar    1  UNL1        0.1545
     20 C          68.5681   91.9366   13.6278 C.3     1  UNL1        0.0754
     21 C          60.6397   86.6708    9.3350 C.3     1  UNL1        0.0619
     22 C          61.1100   85.7695    8.2321 C.3     1  UNL1        0.0396
     23 C          60.2126   85.4810    7.0653 C.3     1  UNL1        0.1426
     24 O          58.8450   86.0937    7.0014 O.3     1  UNL1       -0.3538
     25 C          58.3747   86.9950    8.1043 C.3     1  UNL1        0.1426
     26 C          59.2721   87.2836    9.2711 C.3     1  UNL1        0.0396
     27 C          62.0449   89.5375   10.0113 C.3     1  UNL1        0.1162
     28 C          63.2651   90.3237    9.6337 C.3     1  UNL1        0.0272
     29 C          60.6863   90.0118    9.5875 C.3     1  UNL1        0.1647
     30 C          59.3976   90.0355   11.8433 C.3     1  UNL1        0.1742
     31 O          59.7985   90.7178   10.5690 O.3     1  UNL1       -0.3491
     32 O          64.9845   92.8700   12.6960 O.3     1  UNL1       -0.4714
     33 C          65.7522   93.1747   11.4440 C.3     1  UNL1        0.2525
@<TRIPOS>BOND
     1    30    31    1
     2    31    29    1
     3    29    27    1
     4    27    28    1
     5    27     1    1
     6     1     2   ar
     7     2    21    1
     8    21    22    1
     9    22    23    1
    10    23    24    1
    11    24    25    1
    12    25    26    1
    13     2     3   ar
    14     3     4   ar
    15     4     5   ar
    16     5     6   ar
    17     6     7   ar
    18     7     8   ar
    19     8     9   ar
    20     9    14    1
    21    14    15   ar
    22    15    16    1
    23    15    17   ar
    24    17    18   ar
    25    18    19   ar
    26    19    20    1
    27     9    10   ar
    28    10    32    1
    29    32    33    1
    30    10    11   ar
    31    11    12   ar
    32    12    13   ar
    33    13     1   ar
    34    26    21    1
    35    13     4   ar
    36    12     7   ar
    37    19    14   ar
@<TRIPOS>MOLECULE
*****
 33 37 0 0 0
SMALL
GASTEIGER

@<TRIPOS>ATOM
      1 N          61.3496   92.8785    1.1090 N.ar    1  UNL1       -0.3142
      2 C          61.6796   92.7024    2.5616 C.ar    1  UNL1        0.1201
      3 N          63.0947   93.1524    2.7732 N.ar    1  UNL1       -0.2294
      4 C          63.6394   93.6066    1.4515 C.ar    1  UNL1        0.1174
      5 C          64.9781   94.1525    1.0517 C.ar    1  UNL1        0.1193
      6 N          65.2382   94.5290   -0.3768 N.ar    1  UNL1       -0.2422
      7 C          64.1596   94.3597   -1.4054 C.ar    1  UNL1        0.0830
      8 C          64.4198   94.7363   -2.8339 C.ar    1  UNL1        0.0223
      9 C          63.3412   94.5670   -3.8625 C.ar    1  UNL1        0.0394
     10 C          62.0025   94.0211   -3.4626 C.ar    1  UNL1        0.1389
     11 C          61.7424   93.6446   -2.0342 C.ar    1  UNL1        0.0399
     12 C          62.8209   93.8139   -1.0056 C.ar    1  UNL1        0.0380
     13 C          62.5608   93.4373    0.4229 C.ar    1  UNL1        0.0817
     14 C          63.6014   94.9436   -5.2910 C.ar    1  UNL1        0.0526
     15 C          62.8713   95.9955   -6.0725 C.ar    1  UNL1        0.1007
     16 C          61.7530   96.8554   -5.5627 C.3     1  UNL1        0.0557
     17 N          63.4560   96.0364   -7.4532 N.ar    1  UNL1       -0.0817
     18 O          64.5473   95.0098   -7.5251 O.2     1  UNL1       -0.3581
     19 C          64.6372   94.3345   -6.1887 C.ar    1  UNL1        0.1545
     20 C          65.5947   93.2418   -5.8157 C.3     1  UNL1        0.0754
     21 C          60.7565   92.1698    3.6172 C.3     1  UNL1        0.0619
     22 C          59.3870   92.7588    3.7825 C.3     1  UNL1        0.0396
     23 C          58.4639   92.2263    4.8381 C.3     1  UNL1        0.1426
     24 O          58.9103   91.1046    5.7283 O.3     1  UNL1       -0.3538
     25 C          60.2798   90.5156    5.5630 C.3     1  UNL1        0.1426
     26 C          61.2029   91.0482    4.5074 C.3     1  UNL1        0.0396
     27 C          60.0386   92.5529    0.4569 C.3     1  UNL1        0.1162
     28 C          59.7779   91.1662   -0.0519 C.3     1  UNL1        0.0272
     29 C          58.9882   93.6142    0.3135 C.3     1  UNL1        0.1647
     30 C          57.0973   94.6869   -1.1090 C.3     1  UNL1        0.1742
     31 O          57.9522   93.5032   -0.7656 O.3     1  UNL1       -0.3491
     32 O          60.9239   93.8519   -4.4912 O.3     1  UNL1       -0.4714
     33 C          59.5143   94.2537   -4.1729 C.3     1  UNL1        0.2525
@<TRIPOS>BOND
     1    30    31    1
     2    31    29    1
     3    29    27    1
     4    27    28    1
     5    27     1    1
     6     1     2   ar
     7     2    21    1
     8    21    22    1
     9    22    23    1
    10    23    24    1
    11    24    25    1
    12    25    26    1
    13     2     3   ar
    14     3     4   ar
    15     4     5   ar
    16     5     6   ar
    17     6     7   ar
    18     7     8   ar
    19     8     9   ar
    20     9    14    1
    21    14    15   ar
    22    15    16    1
    23    15    17   ar
    24    17    18   ar
    25    18    19   ar
    26    19    20    1
    27     9    10   ar
    28    10    32    1
    29    32    33    1
    30    10    11   ar
    31    11    12   ar
    32    12    13   ar
    33    13     1   ar
    34    26    21    1
    35    13     4   ar
    36    12     7   ar
    37    19    14   ar
@<TRIPOS>MOLECULE
*****
 33 37 0 0 0
SMALL
GASTEIGER

@<TRIPOS>ATOM
      1 N          62.0192   95.0241   -1.2843 N.ar    1  UNL1       -0.3142
      2 C          63.4595   95.3259   -0.9937 C.ar    1  UNL1        0.1201
      3 N          64.1672   95.5128   -2.3030 N.ar    1  UNL1       -0.2294
      4 C          63.1643   95.3265   -3.4028 C.ar    1  UNL1        0.1174
      5 C          63.2883   95.3929   -4.8961 C.ar    1  UNL1        0.1193
      6 N          62.0849   95.1573   -5.7599 N.ar    1  UNL1       -0.2422
      7 C          60.7573   94.8553   -5.1303 C.ar    1  UNL1        0.0830
      8 C          59.5538   94.6196   -5.9941 C.ar    1  UNL1        0.0223
      9 C          58.2263   94.3176   -5.3645 C.ar    1  UNL1        0.0394
     10 C          58.1022   94.2512   -3.8710 C.ar    1  UNL1        0.1389
     11 C          59.3057   94.4869   -3.0073 C.ar    1  UNL1        0.0399
     12 C          60.6332   94.7889   -3.6369 C.ar    1  UNL1        0.0380
     13 C          61.8367   95.0245   -2.7732 C.ar    1  UNL1        0.0817
     14 C          57.0228   94.0820   -6.2282 C.ar    1  UNL1        0.0526
     15 C          56.5450   92.7519   -6.7308 C.ar    1  UNL1        0.1007
     16 C          57.1868   91.4239   -6.4578 C.3     1  UNL1        0.0557
     17 N          55.3127   92.9829   -7.5542 N.ar    1  UNL1       -0.0817
     18 O          55.0289   94.4558   -7.5606 O.2     1  UNL1       -0.3581
     19 C          56.0858   95.1351   -6.7411 C.ar    1  UNL1        0.1545
     20 C          56.1878   96.6087   -6.4802 C.3     1  UNL1        0.0754
     21 C          64.0827   95.4236    0.3672 C.3     1  UNL1        0.0619
     22 C          64.2662   94.1887    1.1985 C.3     1  UNL1        0.0396
     23 C          64.8894   94.2864    2.5594 C.3     1  UNL1        0.1426
     24 O          65.3291   95.6191    3.0890 O.3     1  UNL1       -0.3538
     25 C          65.1456   96.8541    2.2577 C.3     1  UNL1        0.1426
     26 C          64.5224   96.7563    0.8968 C.3     1  UNL1        0.0396
     27 C          60.9492   94.7671   -0.2650 C.3     1  UNL1        0.1162
     28 C          60.2210   95.9175    0.3644 C.3     1  UNL1        0.0272
     29 C          60.6074   93.3595    0.1250 C.3     1  UNL1        0.1647
     30 C          60.1491   93.0338    2.6614 C.3     1  UNL1        0.1742
     31 O          61.0281   92.8289    1.4634 O.3     1  UNL1       -0.3491
     32 O          56.7747   93.9492   -3.2414 O.3     1  UNL1       -0.4714
     33 C          56.6346   92.7819   -2.3100 C.3     1  UNL1        0.2525
@<TRIPOS>BOND
     1    30    31    1
     2    31    29    1
     3    29    27    1
     4    27    28    1
     5    27     1    1
     6     1     2   ar
     7     2    21    1
     8    21    22    1
     9    22    23    1
    10    23    24    1
    11    24    25    1
    12    25    26    1
    13     2     3   ar
    14     3     4   ar
    15     4     5   ar
    16     5     6   ar
    17     6     7   ar
    18     7     8   ar
    19     8     9   ar
    20     9    14    1
    21    14    15   ar
    22    15    16    1
    23    15    17   ar
    24    17    18   ar
    25    18    19   ar
    26    19    20    1
    27     9    10   ar
    28    10    32    1
    29    32    33    1
    30    10    11   ar
    31    11    12   ar
    32    12    13   ar
    33    13     1   ar
    34    26    21    1
    35    13     4   ar
    36    12     7   ar
    37    19    14   ar
@<TRIPOS>MOLECULE
*****
 33 37 0 0 0
SMALL
GASTEIGER

@<TRIPOS>ATOM
      1 N          61.8335   95.0225   -1.2729 N.ar    1  UNL1       -0.3142
      2 C          63.2139   95.5204   -0.9624 C.ar    1  UNL1        0.1201
      3 N          63.8226   96.0242   -2.2375 N.ar    1  UNL1       -0.2294
      4 C          62.8183   95.8376   -3.3359 C.ar    1  UNL1        0.1174
      5 C          62.8644   96.1515   -4.8020 C.ar    1  UNL1        0.1193
      6 N          61.6812   95.8463   -5.6719 N.ar    1  UNL1       -0.2422
      7 C          60.4518   95.2272   -5.0757 C.ar    1  UNL1        0.0830
      8 C          59.2685   94.9219   -5.9457 C.ar    1  UNL1        0.0223
      9 C          58.0392   94.3029   -5.3495 C.ar    1  UNL1        0.0394
     10 C          57.9931   93.9890   -3.8834 C.ar    1  UNL1        0.1389
     11 C          59.1763   94.2942   -3.0135 C.ar    1  UNL1        0.0399
     12 C          60.4057   94.9133   -3.6097 C.ar    1  UNL1        0.0380
     13 C          61.5889   95.2186   -2.7398 C.ar    1  UNL1        0.0817
     14 C          56.8559   93.9976   -6.2194 C.ar    1  UNL1        0.0526
     15 C          55.8540   94.9924   -6.7260 C.ar    1  UNL1        0.1007
     16 C          55.8595   96.4671   -6.4517 C.3     1  UNL1        0.0557
     17 N          54.8457   94.2536   -7.5551 N.ar    1  UNL1       -0.0817
     18 O          55.2245   92.8022   -7.5609 O.2     1  UNL1       -0.3581
     19 C          56.4668   92.6440   -6.7354 C.ar    1  UNL1        0.1545
     20 C          57.1926   91.3580   -6.4721 C.3     1  UNL1        0.0754
     21 C          63.8704   95.5155    0.3863 C.3     1  UNL1        0.0619
     22 C          63.8656   96.7574    1.2274 C.3     1  UNL1        0.0396
     23 C          64.5221   96.7524    2.5761 C.3     1  UNL1        0.1426
     24 O          65.1835   95.5055    3.0836 O.3     1  UNL1       -0.3538
     25 C          65.1884   94.2636    2.2425 C.3     1  UNL1        0.1426
     26 C          64.5319   94.2685    0.8938 C.3     1  UNL1        0.0396
     27 C          60.8671   94.4322   -0.2892 C.3     1  UNL1        0.1162
     28 C          60.9839   92.9892    0.1033 C.3     1  UNL1        0.0272
     29 C          59.7839   95.2849    0.3022 C.3     1  UNL1        0.1647
     30 C          58.0264   96.8549   -0.7915 C.3     1  UNL1        0.1742
     31 O          59.4312   96.5970   -0.3335 O.3     1  UNL1       -0.3491
     32 O          56.7637   93.3699   -3.2872 O.3     1  UNL1       -0.4714
     33 C          56.7480   92.9780   -1.8394 C.3     1  UNL1        0.2525
@<TRIPOS>BOND
     1    30    31    1
     2    31    29    1
     3    29    27    1
     4    27    28    1
     5    27     1    1
     6     1     2   ar
     7     2    21    1
     8    21    22    1
     9    22    23    1
    10    23    24    1
    11    24    25    1
    12    25    26    1
    13     2     3   ar
    14     3     4   ar
    15     4     5   ar
    16     5     6   ar
    17     6     7   ar
    18     7     8   ar
    19     8     9   ar
    20     9    14    1
    21    14    15   ar
    22    15    16    1
    23    15    17   ar
    24    17    18   ar
    25    18    19   ar
    26    19    20    1
    27     9    10   ar
    28    10    32    1
    29    32    33    1
    30    10    11   ar
    31    11    12   ar
    32    12    13   ar
    33    13     1   ar
    34    26    21    1
    35    13     4   ar
    36    12     7   ar
    37    19    14   ar
@<TRIPOS>MOLECULE
*****
 33 37 0 0 0
SMALL
GASTEIGER

@<TRIPOS>ATOM
      1 N          63.3188   85.6529   13.1608 N.ar    1  UNL1       -0.3142
      2 C          62.4440   84.6253   12.5059 C.ar    1  UNL1        0.1201
      3 N          61.6515   85.3084   11.4312 N.ar    1  UNL1       -0.2294
      4 C          62.0364   86.7581   11.4218 C.ar    1  UNL1        0.1174
      5 C          61.5816   87.9119   10.5780 C.ar    1  UNL1        0.1193
      6 N          62.1574   89.2785   10.8031 N.ar    1  UNL1       -0.2422
      7 C          63.1879   89.4914   11.8721 C.ar    1  UNL1        0.0830
      8 C          63.7637   90.8581   12.0973 C.ar    1  UNL1        0.0223
      9 C          64.7942   91.0710   13.1662 C.ar    1  UNL1        0.0394
     10 C          65.2489   89.9172   14.0101 C.ar    1  UNL1        0.1389
     11 C          64.6732   88.5506   13.7849 C.ar    1  UNL1        0.0399
     12 C          63.6426   88.3377   12.7159 C.ar    1  UNL1        0.0380
     13 C          63.0669   86.9710   12.4908 C.ar    1  UNL1        0.0817
     14 C          65.3700   92.4377   13.3914 C.ar    1  UNL1        0.0526
     15 C          65.9064   93.3540   12.3318 C.ar    1  UNL1        0.1007
     16 C          65.9612   93.0645   10.8611 C.3     1  UNL1        0.0557
     17 N          66.3784   94.6106   13.0012 N.ar    1  UNL1       -0.0817
     18 O          66.1337   94.4709   14.4746 O.2     1  UNL1       -0.3581
     19 C          65.5105   93.1280   14.7157 C.ar    1  UNL1        0.1545
     20 C          65.0998   92.5728   16.0473 C.3     1  UNL1        0.0754
     21 C          62.3742   83.1701   12.8631 C.3     1  UNL1        0.0619
     22 C          61.8332   82.7506   14.1978 C.3     1  UNL1        0.0396
     23 C          61.7633   81.2954   14.5550 C.3     1  UNL1        0.1426
     24 O          62.2344   80.2598   13.5775 O.3     1  UNL1       -0.3538
     25 C          62.7753   80.6793   12.2429 C.3     1  UNL1        0.1426
     26 C          62.8452   82.1344   11.8857 C.3     1  UNL1        0.0396
     27 C          64.2773   85.4057   14.2878 C.3     1  UNL1        0.1162
     28 C          65.5076   84.5790   14.0585 C.3     1  UNL1        0.0272
     29 C          64.0054   85.9853   15.6444 C.3     1  UNL1        0.1647
     30 C          62.3817   86.3952   17.6307 C.3     1  UNL1        0.1742
     31 O          62.6726   85.7706   16.2983 O.3     1  UNL1       -0.3491
     32 O          66.2794   90.1301   15.0791 O.3     1  UNL1       -0.4714
     33 C          67.5644   90.8319   14.7530 C.3     1  UNL1        0.2525
@<TRIPOS>BOND
     1    30    31    1
     2    31    29    1
     3    29    27    1
     4    27    28    1
     5    27     1    1
     6     1     2   ar
     7     2    21    1
     8    21    22    1
     9    22    23    1
    10    23    24    1
    11    24    25    1
    12    25    26    1
    13     2     3   ar
    14     3     4   ar
    15     4     5   ar
    16     5     6   ar
    17     6     7   ar
    18     7     8   ar
    19     8     9   ar
    20     9    14    1
    21    14    15   ar
    22    15    16    1
    23    15    17   ar
    24    17    18   ar
    25    18    19   ar
    26    19    20    1
    27     9    10   ar
    28    10    32    1
    29    32    33    1
    30    10    11   ar
    31    11    12   ar
    32    12    13   ar
    33    13     1   ar
    34    26    21    1
    35    13     4   ar
    36    12     7   ar
    37    19    14   ar
@<TRIPOS>MOLECULE
*****
 33 37 0 0 0
SMALL
GASTEIGER

@<TRIPOS>ATOM
      1 N          63.9119   88.1260   13.7725 N.ar    1  UNL1       -0.3142
      2 C          63.8371   89.5653   13.3568 C.ar    1  UNL1        0.1201
      3 N          63.1816   89.6249   12.0089 N.ar    1  UNL1       -0.2294
      4 C          62.8513   88.2225   11.5916 C.ar    1  UNL1        0.1174
      5 C          62.1978   87.6693   10.3600 C.ar    1  UNL1        0.1193
      6 N          61.9957   86.1898   10.2184 N.ar    1  UNL1       -0.2422
      7 C          62.4471   85.2634   11.3083 C.ar    1  UNL1        0.0830
      8 C          62.2450   83.7838   11.1666 C.ar    1  UNL1        0.0223
      9 C          62.6964   82.8574   12.2566 C.ar    1  UNL1        0.0394
     10 C          63.3499   83.4106   13.4883 C.ar    1  UNL1        0.1389
     11 C          63.5520   84.8902   13.6299 C.ar    1  UNL1        0.0399
     12 C          63.1006   85.8166   12.5400 C.ar    1  UNL1        0.0380
     13 C          63.3027   87.2961   12.6816 C.ar    1  UNL1        0.0817
     14 C          62.4943   81.3779   12.1149 C.ar    1  UNL1        0.0526
     15 C          62.9970   80.5231   10.9895 C.ar    1  UNL1        0.1007
     16 C          63.7900   80.9978    9.8081 C.3     1  UNL1        0.0557
     17 N          62.5675   79.1103   11.2528 N.ar    1  UNL1       -0.0817
     18 O          61.7993   79.0919   12.5411 O.2     1  UNL1       -0.3581
     19 C          61.7541   80.4934   13.0739 C.ar    1  UNL1        0.1545
     20 C          61.0860   80.9330   14.3428 C.3     1  UNL1        0.0754
     21 C          64.3311   90.7389   14.1497 C.3     1  UNL1        0.0619
     22 C          63.8021   90.9868   15.5312 C.3     1  UNL1        0.0396
     23 C          64.2960   92.1604   16.3241 C.3     1  UNL1        0.1426
     24 O          65.3190   93.0861   15.7355 O.3     1  UNL1       -0.3538
     25 C          65.8480   92.8382   14.3539 C.3     1  UNL1        0.1426
     26 C          65.3541   91.6646   13.5610 C.3     1  UNL1        0.0396
     27 C          64.4939   87.6076   15.0542 C.3     1  UNL1        0.1162
     28 C          65.7121   86.7330   15.0251 C.3     1  UNL1        0.0272
     29 C          63.8575   87.9639   16.3650 C.3     1  UNL1        0.1647
     30 C          62.5431   86.1857   17.7289 C.3     1  UNL1        0.1742
     31 O          62.5560   87.3332   16.7629 O.3     1  UNL1       -0.3491
     32 O          63.8013   82.4843   14.5783 O.3     1  UNL1       -0.4714
     33 C          64.1672   83.0332   15.9254 C.3     1  UNL1        0.2525
@<TRIPOS>BOND
     1    30    31    1
     2    31    29    1
     3    29    27    1
     4    27    28    1
     5    27     1    1
     6     1     2   ar
     7     2    21    1
     8    21    22    1
     9    22    23    1
    10    23    24    1
    11    24    25    1
    12    25    26    1
    13     2     3   ar
    14     3     4   ar
    15     4     5   ar
    16     5     6   ar
    17     6     7   ar
    18     7     8   ar
    19     8     9   ar
    20     9    14    1
    21    14    15   ar
    22    15    16    1
    23    15    17   ar
    24    17    18   ar
    25    18    19   ar
    26    19    20    1
    27     9    10   ar
    28    10    32    1
    29    32    33    1
    30    10    11   ar
    31    11    12   ar
    32    12    13   ar
    33    13     1   ar
    34    26    21    1
    35    13     4   ar
    36    12     7   ar
    37    19    14   ar
@<TRIPOS>MOLECULE
*****
 33 37 0 0 0
SMALL
GASTEIGER

@<TRIPOS>ATOM
      1 N          63.8736   89.5872   13.2837 N.ar    1  UNL1       -0.3142
      2 C          64.5385   89.5805   14.6283 C.ar    1  UNL1        0.1201
      3 N          64.6444   88.1559   15.0858 N.ar    1  UNL1       -0.2294
      4 C          64.0450   87.2822   14.0240 C.ar    1  UNL1        0.1174
      5 C          63.8715   85.7954   13.9275 C.ar    1  UNL1        0.1193
      6 N          63.2216   85.1933   12.7171 N.ar    1  UNL1       -0.2422
      7 C          62.7452   86.0779   11.6033 C.ar    1  UNL1        0.0830
      8 C          62.0953   85.4757   10.3929 C.ar    1  UNL1        0.0223
      9 C          61.6190   86.3603    9.2791 C.ar    1  UNL1        0.0394
     10 C          61.7925   87.8471    9.3757 C.ar    1  UNL1        0.1389
     11 C          62.4424   88.4493   10.5861 C.ar    1  UNL1        0.0399
     12 C          62.9188   87.5647   11.6999 C.ar    1  UNL1        0.0380
     13 C          63.5687   88.1668   12.9102 C.ar    1  UNL1        0.0817
     14 C          60.9691   85.7581    8.0688 C.ar    1  UNL1        0.0526
     15 C          61.6314   84.8579    7.0683 C.ar    1  UNL1        0.1007
     16 C          63.0599   84.4017    7.1026 C.3     1  UNL1        0.0557
     17 N          60.6144   84.4938    6.0276 N.ar    1  UNL1       -0.0817
     18 O          59.3235   85.1692    6.3848 O.2     1  UNL1       -0.3581
     19 C          59.5427   85.9505    7.6463 C.ar    1  UNL1        0.1545
     20 C          58.5159   86.7789    8.3600 C.3     1  UNL1        0.0754
     21 C          65.0139   90.7865   15.3829 C.3     1  UNL1        0.0619
     22 C          64.1270   91.4269   16.4092 C.3     1  UNL1        0.0396
     23 C          64.6024   92.6329   17.1637 C.3     1  UNL1        0.1426
     24 O          65.9647   93.1987   16.8920 O.3     1  UNL1       -0.3538
     25 C          66.8517   92.5584   15.8657 C.3     1  UNL1        0.1426
     26 C          66.3762   91.3523   15.1112 C.3     1  UNL1        0.0396
     27 C          63.5675   90.8012   12.4576 C.3     1  UNL1        0.1162
     28 C          62.1430   91.1765   12.1751 C.3     1  UNL1        0.0272
     29 C          64.6860   91.6400   11.9139 C.3     1  UNL1        0.1647
     30 C          66.2016   93.7443   12.0705 C.3     1  UNL1        0.1742
     31 O          65.0750   92.9120   12.6072 O.3     1  UNL1       -0.3491
     32 O          61.3162   88.7317    8.2619 O.3     1  UNL1       -0.4714
     33 C          60.1824   89.6859    8.4945 C.3     1  UNL1        0.2525
@<TRIPOS>BOND
     1    30    31    1
     2    31    29    1
     3    29    27    1
     4    27    28    1
     5    27     1    1
     6     1     2   ar
     7     2    21    1
     8    21    22    1
     9    22    23    1
    10    23    24    1
    11    24    25    1
    12    25    26    1
    13     2     3   ar
    14     3     4   ar
    15     4     5   ar
    16     5     6   ar
    17     6     7   ar
    18     7     8   ar
    19     8     9   ar
    20     9    14    1
    21    14    15   ar
    22    15    16    1
    23    15    17   ar
    24    17    18   ar
    25    18    19   ar
    26    19    20    1
    27     9    10   ar
    28    10    32    1
    29    32    33    1
    30    10    11   ar
    31    11    12   ar
    32    12    13   ar
    33    13     1   ar
    34    26    21    1
    35    13     4   ar
    36    12     7   ar
    37    19    14   ar
@<TRIPOS>MOLECULE
*****
 33 37 0 0 0
SMALL
GASTEIGER

@<TRIPOS>ATOM
      1 N          63.7349   89.4922   13.2327 N.ar    1  UNL1       -0.3142
      2 C          64.3899   89.4930   14.5821 C.ar    1  UNL1        0.1201
      3 N          64.5591   88.0671   15.0160 N.ar    1  UNL1       -0.2294
      4 C          64.0087   87.1851   13.9347 C.ar    1  UNL1        0.1174
      5 C          63.9056   85.6938   13.8114 C.ar    1  UNL1        0.1193
      6 N          63.2930   85.0832   12.5858 N.ar    1  UNL1       -0.2422
      7 C          62.7836   85.9640   11.4837 C.ar    1  UNL1        0.0830
      8 C          62.1711   85.3534   10.2581 C.ar    1  UNL1        0.0223
      9 C          61.6616   86.2341    9.1559 C.ar    1  UNL1        0.0394
     10 C          61.7648   87.7256    9.2794 C.ar    1  UNL1        0.1389
     11 C          62.3774   88.3361   10.5049 C.ar    1  UNL1        0.0399
     12 C          62.8868   87.4553   11.6070 C.ar    1  UNL1        0.0380
     13 C          63.4993   88.0659   12.8326 C.ar    1  UNL1        0.0817
     14 C          61.0491   85.6236    7.9304 C.ar    1  UNL1        0.0526
     15 C          59.6296   85.7934    7.4762 C.ar    1  UNL1        0.1007
     16 C          58.5735   86.6036    8.1677 C.3     1  UNL1        0.0557
     17 N          59.4517   85.0108    6.2090 N.ar    1  UNL1       -0.0817
     18 O          60.7612   84.3573    5.8800 O.2     1  UNL1       -0.3581
     19 C          61.7484   84.7360    6.9440 C.ar    1  UNL1        0.1545
     20 C          63.1831   84.3032    7.0098 C.3     1  UNL1        0.0754
     21 C          64.8031   90.7066   15.3609 C.3     1  UNL1        0.0619
     22 C          63.9075   91.2494   16.4347 C.3     1  UNL1        0.0396
     23 C          64.3207   92.4630   17.2135 C.3     1  UNL1        0.1426
     24 O          65.6296   93.1337   16.9185 O.3     1  UNL1       -0.3538
     25 C          66.5252   92.5908   15.8447 C.3     1  UNL1        0.1426
     26 C          66.1120   91.3772   15.0659 C.3     1  UNL1        0.0396
     27 C          63.3781   90.7049   12.4251 C.3     1  UNL1        0.1162
     28 C          64.4497   91.6637   11.9983 C.3     1  UNL1        0.0272
     29 C          61.9495   90.9587   12.0443 C.3     1  UNL1        0.1647
     30 C          59.5123   90.0655   11.9356 C.3     1  UNL1        0.1742
     31 O          60.8606   90.0850   12.5927 O.3     1  UNL1       -0.3491
     32 O          61.2554   88.6063    8.1772 O.3     1  UNL1       -0.4714
     33 C          60.1197   89.5513    8.4365 C.3     1  UNL1        0.2525
@<TRIPOS>BOND
     1    30    31    1
     2    31    29    1
     3    29    27    1
     4    27    28    1
     5    27     1    1
     6     1     2   ar
     7     2    21    1
     8    21    22    1
     9    22    23    1
    10    23    24    1
    11    24    25    1
    12    25    26    1
    13     2     3   ar
    14     3     4   ar
    15     4     5   ar
    16     5     6   ar
    17     6     7   ar
    18     7     8   ar
    19     8     9   ar
    20     9    14    1
    21    14    15   ar
    22    15    16    1
    23    15    17   ar
    24    17    18   ar
    25    18    19   ar
    26    19    20    1
    27     9    10   ar
    28    10    32    1
    29    32    33    1
    30    10    11   ar
    31    11    12   ar
    32    12    13   ar
    33    13     1   ar
    34    26    21    1
    35    13     4   ar
    36    12     7   ar
    37    19    14   ar
