@<TRIPOS>MOLECULE
*****
 22 25 0 0 0
SMALL
GASTEIGER

@<TRIPOS>ATOM
      1 C          64.4252   89.8195   14.3636 C.ar    1  UNL1        0.1213
      2 N          65.3082   90.9507   14.8001 N.ar    1  UNL1       -0.2309
      3 C          65.4734   91.8849   13.6382 C.ar    1  UNL1        0.0983
      4 C          66.2340   93.1683   13.4824 C.ar    1  UNL1        0.0206
      5 C          66.2136   93.8978   12.1719 C.ar    1  UNL1        0.0016
      6 C          65.4326   93.3439   11.0172 C.ar    1  UNL1        0.0016
      7 C          64.6720   92.0605   11.1730 C.ar    1  UNL1        0.0188
      8 C          64.6924   91.3310   12.4835 C.ar    1  UNL1        0.0787
      9 N          64.0446   90.0545   12.9319 N.ar    1  UNL1       -0.3123
     10 C          64.1686   84.6926   15.1690 C.3     1  UNL1        0.0896
     11 N          63.8695   86.0939   15.6129 N.3     1  UNL1       -0.2711
     12 C          63.1431   86.3330   16.9033 C.3     1  UNL1        0.0722
     13 C          62.8441   87.7342   17.3471 C.3     1  UNL1        0.0178
     14 C          63.2714   88.8964   16.5005 C.3     1  UNL1        0.0103
     15 C          63.9978   88.6573   15.2102 C.3     1  UNL1        0.0729
     16 C          64.2969   87.2561   14.7664 C.3     1  UNL1        0.0796
     17 C          63.1698   89.1686   12.0953 C.3     1  UNL1        0.1366
     18 C          61.7687   89.5920   11.7672 C.3     1  UNL1        0.1378
     19 C          61.3160   90.2235   10.4842 C.3     1  UNL1        0.0341
     20 C          59.8418   90.4800   10.5886 C.3     1  UNL1        0.0346
     21 C          59.3833   90.0070   11.9362 C.3     1  UNL1        0.1422
     22 O          60.5743   89.4582   12.6647 O.3     1  UNL1       -0.3543
@<TRIPOS>BOND
     1    10    11    1
     2    11    12    1
     3    12    13    1
     4    13    14    1
     5    14    15    1
     6    15     1    1
     7     1     2   ar
     8     2     3   ar
     9     3     4   ar
    10     4     5   ar
    11     5     6   ar
    12     6     7   ar
    13     7     8   ar
    14     8     9   ar
    15     9    17    1
    16    17    18    1
    17    18    19    1
    18    19    20    1
    19    20    21    1
    20    21    22    1
    21    15    16    1
    22    16    11    1
    23     9     1   ar
    24    22    18    1
    25     8     3   ar
@<TRIPOS>MOLECULE
*****
 22 25 0 0 0
SMALL
GASTEIGER

@<TRIPOS>ATOM
      1 C          62.8730   85.7376   11.8680 C.ar    1  UNL1        0.1213
      2 N          62.2242   86.5693   10.8015 N.ar    1  UNL1       -0.2309
      3 C          62.4381   88.0136   11.1457 C.ar    1  UNL1        0.0983
      4 C          62.0227   89.2811   10.4596 C.ar    1  UNL1        0.0206
      5 C          62.3883   90.6094   11.0527 C.ar    1  UNL1        0.0016
      6 C          63.1692   90.6702   12.3319 C.ar    1  UNL1        0.0016
      7 C          63.5847   89.4027   13.0180 C.ar    1  UNL1        0.0188
      8 C          63.2191   88.0744   12.4249 C.ar    1  UNL1        0.0787
      9 N          63.4879   86.6678   12.8713 N.ar    1  UNL1       -0.3123
     10 C          61.7515   81.3004   14.3285 C.3     1  UNL1        0.0896
     11 N          62.3411   82.0203   13.1519 N.3     1  UNL1       -0.2711
     12 C          62.9594   81.2413   12.0290 C.3     1  UNL1        0.0722
     13 C          63.5490   81.9611   10.8525 C.3     1  UNL1        0.0178
     14 C          63.5201   83.4599   10.7988 C.3     1  UNL1        0.0103
     15 C          62.9018   84.2388   11.9217 C.3     1  UNL1        0.0729
     16 C          62.3122   83.5190   13.0982 C.3     1  UNL1        0.0796
     17 C          64.2395   86.2625   14.1045 C.3     1  UNL1        0.1366
     18 C          63.6851   86.5843   15.4605 C.3     1  UNL1        0.1378
     19 C          63.2107   85.5894   16.4779 C.3     1  UNL1        0.0341
     20 C          62.7400   86.3477   17.6834 C.3     1  UNL1        0.0346
     21 C          62.9235   87.8113   17.4112 C.3     1  UNL1        0.1422
     22 O          63.5076   87.9575   16.0373 O.3     1  UNL1       -0.3543
@<TRIPOS>BOND
     1    10    11    1
     2    11    12    1
     3    12    13    1
     4    13    14    1
     5    14    15    1
     6    15     1    1
     7     1     2   ar
     8     2     3   ar
     9     3     4   ar
    10     4     5   ar
    11     5     6   ar
    12     6     7   ar
    13     7     8   ar
    14     8     9   ar
    15     9    17    1
    16    17    18    1
    17    18    19    1
    18    19    20    1
    19    20    21    1
    20    21    22    1
    21    15    16    1
    22    16    11    1
    23     9     1   ar
    24    22    18    1
    25     8     3   ar
@<TRIPOS>MOLECULE
*****
 22 25 0 0 0
SMALL
GASTEIGER

@<TRIPOS>ATOM
      1 C          64.0038   90.7977   12.7145 C.ar    1  UNL1        0.1213
      2 N          64.2574   90.6368   14.1841 N.ar    1  UNL1       -0.2309
      3 C          65.3053   91.6322   14.5854 C.ar    1  UNL1        0.0983
      4 C          65.9515   91.9321   15.9054 C.ar    1  UNL1        0.0206
      5 C          66.9919   93.0082   16.0038 C.ar    1  UNL1        0.0016
      6 C          67.3859   93.7844   14.7822 C.ar    1  UNL1        0.0016
      7 C          66.7396   93.4845   13.4622 C.ar    1  UNL1        0.0188
      8 C          65.6993   92.4084   13.3639 C.ar    1  UNL1        0.0787
      9 N          64.8949   91.8926   12.2076 N.ar    1  UNL1       -0.3123
     10 C          61.9870   86.2189   11.3121 C.3     1  UNL1        0.0896
     11 N          62.0215   87.7139   11.1944 N.3     1  UNL1       -0.2711
     12 C          61.0824   88.4144   10.2578 C.3     1  UNL1        0.0722
     13 C          61.1170   89.9093   10.1401 C.3     1  UNL1        0.0178
     14 C          62.0908   90.7038   10.9590 C.3     1  UNL1        0.0103
     15 C          63.0300   90.0033   11.8956 C.3     1  UNL1        0.0729
     16 C          62.9953   88.5083   12.0133 C.3     1  UNL1        0.0796
     17 C          64.9688   92.3854   10.7927 C.3     1  UNL1        0.1366
     18 C          66.2706   92.8838   10.2391 C.3     1  UNL1        0.1378
     19 C          67.5451   92.0990   10.1406 C.3     1  UNL1        0.0341
     20 C          68.5888   92.9848    9.5273 C.3     1  UNL1        0.0346
     21 C          67.9594   94.3170    9.2467 C.3     1  UNL1        0.1422
     22 O          66.5266   94.2547    9.6866 O.3     1  UNL1       -0.3543
@<TRIPOS>BOND
     1    10    11    1
     2    11    12    1
     3    12    13    1
     4    13    14    1
     5    14    15    1
     6    15     1    1
     7     1     2   ar
     8     2     3   ar
     9     3     4   ar
    10     4     5   ar
    11     5     6   ar
    12     6     7   ar
    13     7     8   ar
    14     8     9   ar
    15     9    17    1
    16    17    18    1
    17    18    19    1
    18    19    20    1
    19    20    21    1
    20    21    22    1
    21    15    16    1
    22    16    11    1
    23     9     1   ar
    24    22    18    1
    25     8     3   ar
@<TRIPOS>MOLECULE
*****
 22 25 0 0 0
SMALL
GASTEIGER

@<TRIPOS>ATOM
      1 C          63.4842   90.4934   12.7918 C.ar    1  UNL1        0.1213
      2 N          64.3746   91.4618   12.0712 N.ar    1  UNL1       -0.2309
      3 C          65.2867   92.0928   13.0812 C.ar    1  UNL1        0.0983
      4 C          66.3725   93.1193   12.9500 C.ar    1  UNL1        0.0206
      5 C          67.1315   93.5674   14.1636 C.ar    1  UNL1        0.0016
      6 C          66.8047   92.9890   15.5085 C.ar    1  UNL1        0.0016
      7 C          65.7189   91.9625   15.6397 C.ar    1  UNL1        0.0188
      8 C          64.9599   91.5144   14.4260 C.ar    1  UNL1        0.0787
      9 N          63.8459   90.5260   14.2472 N.ar    1  UNL1       -0.3123
     10 C          61.9148   85.9129   10.9060 C.3     1  UNL1        0.0896
     11 N          61.6343   87.3518   11.2239 N.3     1  UNL1       -0.2711
     12 C          60.2887   87.9392   10.9169 C.3     1  UNL1        0.0722
     13 C          60.0083   89.3780   11.2348 C.3     1  UNL1        0.0178
     14 C          61.0734   90.2294   11.8598 C.3     1  UNL1        0.0103
     15 C          62.4190   89.6420   12.1668 C.3     1  UNL1        0.0729
     16 C          62.6995   88.2032   11.8489 C.3     1  UNL1        0.0796
     17 C          63.2059   89.7128   15.3331 C.3     1  UNL1        0.1366
     18 C          63.5689   88.2671   15.5005 C.3     1  UNL1        0.1378
     19 C          64.5052   87.4862   14.6268 C.3     1  UNL1        0.0341
     20 C          64.5742   86.0849   15.1574 C.3     1  UNL1        0.0346
     21 C          63.6806   85.9997   16.3590 C.3     1  UNL1        0.1422
     22 O          63.0592   87.3484   16.5711 O.3     1  UNL1       -0.3543
@<TRIPOS>BOND
     1    10    11    1
     2    11    12    1
     3    12    13    1
     4    13    14    1
     5    14    15    1
     6    15     1    1
     7     1     2   ar
     8     2     3   ar
     9     3     4   ar
    10     4     5   ar
    11     5     6   ar
    12     6     7   ar
    13     7     8   ar
    14     8     9   ar
    15     9    17    1
    16    17    18    1
    17    18    19    1
    18    19    20    1
    19    20    21    1
    20    21    22    1
    21    15    16    1
    22    16    11    1
    23     9     1   ar
    24    22    18    1
    25     8     3   ar
@<TRIPOS>MOLECULE
*****
 22 25 0 0 0
SMALL
GASTEIGER

@<TRIPOS>ATOM
      1 C          63.5829   89.4144   13.1284 C.ar    1  UNL1        0.1213
      2 N          62.8254   89.7104   11.8681 N.ar    1  UNL1       -0.2309
      3 C          62.4465   88.4034   11.2371 C.ar    1  UNL1        0.0983
      4 C          61.6925   88.0757    9.9825 C.ar    1  UNL1        0.0206
      5 C          61.4620   86.6442    9.5983 C.ar    1  UNL1        0.0016
      6 C          61.9854   85.5404   10.4687 C.ar    1  UNL1        0.0016
      7 C          62.7394   85.8681   11.7233 C.ar    1  UNL1        0.0188
      8 C          62.9699   87.2995   12.1075 C.ar    1  UNL1        0.0787
      9 N          63.6723   87.9244   13.2764 N.ar    1  UNL1       -0.3123
     10 C          66.7445   93.4343   14.0480 C.3     1  UNL1        0.0896
     11 N          65.7321   92.4400   14.5344 N.3     1  UNL1       -0.2711
     12 C          65.2882   92.4614   15.9670 C.3     1  UNL1        0.0722
     13 C          64.2759   91.4672   16.4534 C.3     1  UNL1        0.0178
     14 C          63.7074   90.4515   15.5072 C.3     1  UNL1        0.0103
     15 C          64.1514   90.4301   14.0746 C.3     1  UNL1        0.0729
     16 C          65.1637   91.4243   13.5882 C.3     1  UNL1        0.0796
     17 C          64.3457   87.1885   14.3966 C.3     1  UNL1        0.1366
     18 C          63.9726   85.7658   14.6905 C.3     1  UNL1        0.1378
     19 C          64.8440   84.5636   14.4775 C.3     1  UNL1        0.0341
     20 C          64.0724   83.3502   14.9045 C.3     1  UNL1        0.0346
     21 C          62.7241   83.8024   15.3814 C.3     1  UNL1        0.1422
     22 O          62.6624   85.2954   15.2492 O.3     1  UNL1       -0.3543
@<TRIPOS>BOND
     1    10    11    1
     2    11    12    1
     3    12    13    1
     4    13    14    1
     5    14    15    1
     6    15     1    1
     7     1     2   ar
     8     2     3   ar
     9     3     4   ar
    10     4     5   ar
    11     5     6   ar
    12     6     7   ar
    13     7     8   ar
    14     8     9   ar
    15     9    17    1
    16    17    18    1
    17    18    19    1
    18    19    20    1
    19    20    21    1
    20    21    22    1
    21    15    16    1
    22    16    11    1
    23     9     1   ar
    24    22    18    1
    25     8     3   ar
@<TRIPOS>MOLECULE
*****
 22 25 0 0 0
SMALL
GASTEIGER

@<TRIPOS>ATOM
      1 C          62.0987   87.7872   10.7565 C.ar    1  UNL1        0.1213
      2 N          62.2759   89.2547   11.0116 N.ar    1  UNL1       -0.2309
      3 C          63.0695   89.4132   12.2746 C.ar    1  UNL1        0.0983
      4 C          63.5473   90.6276   13.0140 C.ar    1  UNL1        0.0206
      5 C          64.3384   90.4725   14.2789 C.ar    1  UNL1        0.0016
      6 C          64.6517   89.1029   14.8044 C.ar    1  UNL1        0.0016
      7 C          64.1739   87.8885   14.0650 C.ar    1  UNL1        0.0188
      8 C          63.3828   88.0436   12.8001 C.ar    1  UNL1        0.0787
      9 N          62.7828   87.0387   11.8619 N.ar    1  UNL1       -0.3123
     10 C          62.0603   84.6885    6.5856 C.3     1  UNL1        0.0896
     11 N          61.3468   85.6263    7.5139 N.3     1  UNL1       -0.2711
     12 C          59.9007   85.9524    7.2849 C.3     1  UNL1        0.0722
     13 C          59.1873   86.8901    8.2131 C.3     1  UNL1        0.0178
     14 C          59.9200   87.5017    9.3703 C.3     1  UNL1        0.0103
     15 C          61.3660   87.1756    9.5993 C.3     1  UNL1        0.0729
     16 C          62.0795   86.2379    8.6711 C.3     1  UNL1        0.0796
     17 C          62.8544   85.5472   12.0040 C.3     1  UNL1        0.1366
     18 C          63.0918   84.9328   13.3516 C.3     1  UNL1        0.1378
     19 C          64.3516   84.2544   13.8018 C.3     1  UNL1        0.0341
     20 C          64.1494   83.7912   15.2140 C.3     1  UNL1        0.0346
     21 C          62.7647   84.1832   15.6368 C.3     1  UNL1        0.1422
     22 O          62.1110   84.8888   14.4857 O.3     1  UNL1       -0.3543
@<TRIPOS>BOND
     1    10    11    1
     2    11    12    1
     3    12    13    1
     4    13    14    1
     5    14    15    1
     6    15     1    1
     7     1     2   ar
     8     2     3   ar
     9     3     4   ar
    10     4     5   ar
    11     5     6   ar
    12     6     7   ar
    13     7     8   ar
    14     8     9   ar
    15     9    17    1
    16    17    18    1
    17    18    19    1
    18    19    20    1
    19    20    21    1
    20    21    22    1
    21    15    16    1
    22    16    11    1
    23     9     1   ar
    24    22    18    1
    25     8     3   ar
@<TRIPOS>MOLECULE
*****
 22 25 0 0 0
SMALL
GASTEIGER

@<TRIPOS>ATOM
      1 C          62.9254   86.0664   12.0887 C.ar    1  UNL1        0.1213
      2 N          62.3307   84.9142   11.3345 N.ar    1  UNL1       -0.2309
      3 C          62.7008   83.6500   12.0519 C.ar    1  UNL1        0.0983
      4 C          62.3945   82.2091   11.7694 C.ar    1  UNL1        0.0206
      5 C          62.9115   81.1390   12.6845 C.ar    1  UNL1        0.0016
      6 C          63.7349   81.5099   13.8822 C.ar    1  UNL1        0.0016
      7 C          64.0413   82.9508   14.1648 C.ar    1  UNL1        0.0188
      8 C          63.5243   84.0208   13.2496 C.ar    1  UNL1        0.0787
      9 N          63.6630   85.5143   13.2723 N.ar    1  UNL1       -0.3123
     10 C          63.8804   91.0659   13.1342 C.3     1  UNL1        0.0896
     11 N          63.2813   90.0159   12.2461 N.3     1  UNL1       -0.2711
     12 C          62.5605   90.4157   10.9929 C.3     1  UNL1        0.0722
     13 C          61.9613   89.3657   10.1050 C.3     1  UNL1        0.0178
     14 C          62.0830   87.9160   10.4702 C.3     1  UNL1        0.0103
     15 C          62.8037   87.5162   11.7234 C.3     1  UNL1        0.0729
     16 C          63.4029   88.5661   12.6114 C.3     1  UNL1        0.0796
     17 C          64.4086   86.3149   14.2985 C.3     1  UNL1        0.1366
     18 C          63.7562   86.6508   15.6067 C.3     1  UNL1        0.1378
     19 C          63.2683   85.6658   16.6273 C.3     1  UNL1        0.0341
     20 C          62.6878   86.4369   17.7754 C.3     1  UNL1        0.0346
     21 C          62.8169   87.8986   17.4645 C.3     1  UNL1        0.1422
     22 O          63.4773   88.0308   16.1242 O.3     1  UNL1       -0.3543
@<TRIPOS>BOND
     1    10    11    1
     2    11    12    1
     3    12    13    1
     4    13    14    1
     5    14    15    1
     6    15     1    1
     7     1     2   ar
     8     2     3   ar
     9     3     4   ar
    10     4     5   ar
    11     5     6   ar
    12     6     7   ar
    13     7     8   ar
    14     8     9   ar
    15     9    17    1
    16    17    18    1
    17    18    19    1
    18    19    20    1
    19    20    21    1
    20    21    22    1
    21    15    16    1
    22    16    11    1
    23     9     1   ar
    24    22    18    1
    25     8     3   ar
@<TRIPOS>MOLECULE
*****
 22 25 0 0 0
SMALL
GASTEIGER

@<TRIPOS>ATOM
      1 C          62.7896   85.9256   11.9402 C.ar    1  UNL1        0.1213
      2 N          63.6000   86.8710   12.7766 N.ar    1  UNL1       -0.2309
      3 C          63.2285   88.2708   12.3857 C.ar    1  UNL1        0.0983
      4 C          63.7028   89.6081   12.8721 C.ar    1  UNL1        0.0206
      5 C          63.1372   90.8650   12.2805 C.ar    1  UNL1        0.0016
      6 C          62.0972   90.7847   11.2026 C.ar    1  UNL1        0.0016
      7 C          61.6228   89.4474   10.7162 C.ar    1  UNL1        0.0188
      8 C          62.1885   88.1904   11.3078 C.ar    1  UNL1        0.0787
      9 N          61.9173   86.7411   11.0325 N.ar    1  UNL1       -0.3123
     10 C          61.6707   81.4789   14.3845 C.3     1  UNL1        0.0896
     11 N          62.2829   82.2044   13.2231 N.3     1  UNL1       -0.2711
     12 C          62.9478   81.4321   12.1225 C.3     1  UNL1        0.0722
     13 C          63.5600   82.1576   10.9611 C.3     1  UNL1        0.0178
     14 C          63.5073   83.6555   10.9004 C.3     1  UNL1        0.0103
     15 C          62.8424   84.4278   12.0010 C.3     1  UNL1        0.0729
     16 C          62.2302   83.7023   13.1623 C.3     1  UNL1        0.0796
     17 C          60.9445   86.2018   10.0261 C.3     1  UNL1        0.1366
     18 C          61.4386   85.6844    8.7078 C.3     1  UNL1        0.1378
     19 C          62.8706   85.4290    8.3415 C.3     1  UNL1        0.0341
     20 C          62.9044   84.9182    6.9316 C.3     1  UNL1        0.0346
     21 C          61.4935   84.8579    6.4264 C.3     1  UNL1        0.1422
     22 O          60.5874   85.3314    7.5242 O.3     1  UNL1       -0.3543
@<TRIPOS>BOND
     1    10    11    1
     2    11    12    1
     3    12    13    1
     4    13    14    1
     5    14    15    1
     6    15     1    1
     7     1     2   ar
     8     2     3   ar
     9     3     4   ar
    10     4     5   ar
    11     5     6   ar
    12     6     7   ar
    13     7     8   ar
    14     8     9   ar
    15     9    17    1
    16    17    18    1
    17    18    19    1
    18    19    20    1
    19    20    21    1
    20    21    22    1
    21    15    16    1
    22    16    11    1
    23     9     1   ar
    24    22    18    1
    25     8     3   ar
@<TRIPOS>MOLECULE
*****
 22 25 0 0 0
SMALL
GASTEIGER

@<TRIPOS>ATOM
      1 C          62.9321   84.4690   14.7741 C.ar    1  UNL1        0.1213
      2 N          62.6841   83.0766   15.2738 N.ar    1  UNL1       -0.2309
      3 C          62.7021   82.1506   14.0939 C.ar    1  UNL1        0.0983
      4 C          62.5160   80.6666   13.9799 C.ar    1  UNL1        0.0206
      5 C          62.5891   80.0026   12.6368 C.ar    1  UNL1        0.0016
      6 C          62.8482   80.8227   11.4079 C.ar    1  UNL1        0.0016
      7 C          63.0343   82.3067   11.5220 C.ar    1  UNL1        0.0188
      8 C          62.9612   82.9706   12.8650 C.ar    1  UNL1        0.0787
      9 N          63.1034   84.4035   13.2854 N.ar    1  UNL1       -0.3123
     10 C          64.0920   89.5089   15.2782 C.3     1  UNL1        0.0896
     11 N          63.5773   88.2291   15.8675 N.3     1  UNL1       -0.2711
     12 C          63.1279   88.1894   17.2980 C.3     1  UNL1        0.0722
     13 C          62.6132   86.9097   17.8872 C.3     1  UNL1        0.0178
     14 C          62.5480   85.6695   17.0459 C.3     1  UNL1        0.0103
     15 C          62.9974   85.7092   15.6154 C.3     1  UNL1        0.0729
     16 C          63.5120   86.9889   15.0262 C.3     1  UNL1        0.0796
     17 C          63.3700   85.5666   12.3765 C.3     1  UNL1        0.1366
     18 C          62.3303   85.9974   11.3849 C.3     1  UNL1        0.1378
     19 C          62.2280   85.5405    9.9599 C.3     1  UNL1        0.0341
     20 C          61.0447   86.2215    9.3386 C.3     1  UNL1        0.0346
     21 C          60.4157   87.0993   10.3795 C.3     1  UNL1        0.1422
     22 O          61.2102   86.9609   11.6443 O.3     1  UNL1       -0.3543
@<TRIPOS>BOND
     1    10    11    1
     2    11    12    1
     3    12    13    1
     4    13    14    1
     5    14    15    1
     6    15     1    1
     7     1     2   ar
     8     2     3   ar
     9     3     4   ar
    10     4     5   ar
    11     5     6   ar
    12     6     7   ar
    13     7     8   ar
    14     8     9   ar
    15     9    17    1
    16    17    18    1
    17    18    19    1
    18    19    20    1
    19    20    21    1
    20    21    22    1
    21    15    16    1
    22    16    11    1
    23     9     1   ar
    24    22    18    1
    25     8     3   ar
