@<TRIPOS>MOLECULE
*****
 39 44 0 0 0
SMALL
GASTEIGER

@<TRIPOS>ATOM
      1 C          64.1479   90.8198   12.2086 C.ar    1  UNL1       -0.0005
      2 C          63.4189   91.5907   11.1483 C.ar    1  UNL1       -0.0009
      3 C          62.3933   90.9058   10.2945 C.ar    1  UNL1        0.0170
      4 C          62.0967   89.4500   10.5010 C.ar    1  UNL1        0.0625
      5 C          62.8257   88.6791   11.5612 C.ar    1  UNL1        0.0158
      6 C          63.8512   89.3640   12.4151 C.ar    1  UNL1       -0.0009
      7 C          62.5291   87.2233   11.7677 C.ar    1  UNL1        0.0061
      8 C          61.5035   86.5384   10.9139 C.ar    1  UNL1        0.0608
      9 C          60.7745   87.3093    9.8535 C.ar    1  UNL1        0.2610
     10 O          59.7489   86.6244    8.9997 O.2     1  UNL1       -0.2670
     11 N          61.0711   88.7651    9.6471 N.ar    1  UNL1       -0.2935
     12 C          60.3421   89.5360    8.5868 C.3     1  UNL1        0.1335
     13 C          63.2580   86.4523   12.8280 C.ar    1  UNL1        0.0002
     14 C          63.9140   87.1777   13.9654 C.ar    1  UNL1        0.0000
     15 C          64.6429   86.4067   15.0257 C.ar    1  UNL1        0.0000
     16 C          64.7160   84.9105   14.9486 C.ar    1  UNL1        0.0000
     17 C          64.0601   84.1852   13.8112 C.ar    1  UNL1        0.0000
     18 C          64.1332   82.6890   13.7342 C.ar    1  UNL1        0.0000
     19 C          63.4772   81.9636   12.5967 C.ar    1  UNL1        0.0000
     20 C          62.7482   82.7346   11.5364 C.ar    1  UNL1        0.0000
     21 C          62.6752   84.2308   11.6135 C.ar    1  UNL1        0.0000
     22 C          63.3311   84.9561   12.7509 C.ar    1  UNL1        0.0000
     23 C          65.1735   91.5047   13.0625 C.3     1  UNL1        0.1128
     24 N          64.6915   90.7368   14.2575 N.3     1  UNL1       -0.3125
     25 H          65.2398   91.0018   15.0757 H       1  UNL1        0.1197
     26 H          64.7991   89.7372   14.0853 H       1  UNL1        0.1197
     27 C          66.1991   92.1896   13.9163 C.ar    1  UNL1       -0.0006
     28 C          66.3663   93.6783   13.8390 C.ar    1  UNL1       -0.0015
     29 C          67.3919   94.3631   14.6928 C.ar    1  UNL1        0.0111
     30 C          68.2503   93.5594   15.6240 C.ar    1  UNL1        0.0577
     31 CL         69.2759   94.2443   16.4778 Cl      1  UNL1       -0.0822
     32 C          68.0831   92.0708   15.7014 C.ar    1  UNL1        0.0111
     33 C          67.0575   91.3858   14.8476 C.ar    1  UNL1       -0.0015
     34 C          68.1640   91.3553   11.7650 C.3     1  UNL1        0.1318
     35 N          67.0301   92.2040   11.2711 N.ar    1  UNL1       -0.3088
     36 C          67.0717   93.1330   10.0942 C.ar    1  UNL1        0.1784
     37 N          65.7228   93.7758    9.9632 N.ar    1  UNL1       -0.2226
     38 C          64.8475   93.2441   11.0592 C.ar    1  UNL1        0.1152
     39 C          65.6555   92.2726   11.8676 C.ar    1  UNL1        0.0780
@<TRIPOS>BOND
     1    34    35    1
     2    35    36   ar
     3    36    37   ar
     4    37    38   ar
     5    38    39   ar
     6    39    23    1
     7    23    24    1
     8    23    27    1
     9    27    28   ar
    10    28    29   ar
    11    29    30   ar
    12    30    31    1
    13    30    32   ar
    14    32    33   ar
    15    23     1    1
    16     1     2   ar
    17     2     3   ar
    18     3     4   ar
    19     4     5   ar
    20     5     6   ar
    21     5     7   ar
    22     7    13    1
    23    13    14   ar
    24    14    15   ar
    25    15    16   ar
    26    16    17   ar
    27    17    18   ar
    28    18    19   ar
    29    19    20   ar
    30    20    21   ar
    31    21    22   ar
    32     7     8   ar
    33     8     9   ar
    34     9    10    2
    35     9    11   ar
    36    11    12    1
    37    39    35   ar
    38    33    27   ar
    39     6     1   ar
    40    22    13   ar
    41    11     4   ar
    42    22    17   ar
    43    24    25    1
    44    24    26    1
@<TRIPOS>MOLECULE
*****
 39 44 0 0 0
SMALL
GASTEIGER

@<TRIPOS>ATOM
      1 C          59.3453   94.7313   -4.2248 C.ar    1  UNL1       -0.0005
      2 C          59.6253   94.7844   -5.6975 C.ar    1  UNL1       -0.0009
      3 C          60.9648   94.3595   -6.2219 C.ar    1  UNL1        0.0170
      4 C          62.0243   93.8814   -5.2738 C.ar    1  UNL1        0.0625
      5 C          61.7443   93.8283   -3.8011 C.ar    1  UNL1        0.0158
      6 C          60.4048   94.2532   -3.2767 C.ar    1  UNL1       -0.0009
      7 C          62.8037   93.3503   -2.8530 C.ar    1  UNL1        0.0061
      8 C          64.1432   92.9254   -3.3774 C.ar    1  UNL1        0.0608
      9 C          64.4233   92.9785   -4.8502 C.ar    1  UNL1        0.2610
     10 O          65.7628   92.5535   -5.3746 O.2     1  UNL1       -0.2670
     11 N          63.3639   93.4565   -5.7983 N.ar    1  UNL1       -0.2935
     12 C          63.6439   93.5096   -7.2710 C.3     1  UNL1        0.1335
     13 C          62.5237   93.2972   -1.3803 C.ar    1  UNL1        0.0002
     14 C          61.4225   92.4231   -0.8573 C.ar    1  UNL1        0.0000
     15 C          61.1424   92.3700    0.6153 C.ar    1  UNL1        0.0000
     16 C          61.9635   93.1909    1.5650 C.ar    1  UNL1        0.0000
     17 C          63.0647   94.0649    1.0421 C.ar    1  UNL1        0.0000
     18 C          63.8858   94.8858    1.9918 C.ar    1  UNL1        0.0000
     19 C          64.9870   95.7599    1.4687 C.ar    1  UNL1        0.0000
     20 C          65.2670   95.8130   -0.0039 C.ar    1  UNL1        0.0000
     21 C          64.4459   94.9921   -0.9536 C.ar    1  UNL1        0.0000
     22 C          63.3448   94.1181   -0.4306 C.ar    1  UNL1        0.0000
     23 C          58.0057   95.1562   -3.7003 C.3     1  UNL1        0.1128
     24 N          58.5480   96.5277   -3.4265 N.3     1  UNL1       -0.3125
     25 H          57.8121   97.1109   -3.0281 H       1  UNL1        0.1197
     26 H          58.8770   96.9434   -4.2978 H       1  UNL1        0.1197
     27 C          56.6662   95.5811   -3.1758 C.ar    1  UNL1       -0.0006
     28 C          56.5084   95.9459   -1.7294 C.ar    1  UNL1       -0.0015
     29 C          55.1689   96.3708   -1.2048 C.ar    1  UNL1        0.0111
     30 C          53.9871   96.4308   -2.1267 C.ar    1  UNL1        0.0577
     31 CL         52.6476   96.8557   -1.6022 Cl      1  UNL1       -0.0822
     32 C          54.1449   96.0660   -3.5730 C.ar    1  UNL1        0.0111
     33 C          55.4844   95.6411   -4.0976 C.ar    1  UNL1       -0.0015
     34 C          57.7119   92.7404   -1.5261 C.3     1  UNL1        0.1318
     35 N          57.3284   92.6743   -2.9747 N.ar    1  UNL1       -0.3088
     36 C          56.7426   91.4861   -3.6783 C.ar    1  UNL1        0.1784
     37 N          56.5156   91.8622   -5.1126 N.ar    1  UNL1       -0.2226
     38 C          56.9611   93.2828   -5.2954 C.ar    1  UNL1        0.1152
     39 C          57.4635   93.7847   -3.9741 C.ar    1  UNL1        0.0780
@<TRIPOS>BOND
     1    34    35    1
     2    35    36   ar
     3    36    37   ar
     4    37    38   ar
     5    38    39   ar
     6    39    23    1
     7    23    24    1
     8    23    27    1
     9    27    28   ar
    10    28    29   ar
    11    29    30   ar
    12    30    31    1
    13    30    32   ar
    14    32    33   ar
    15    23     1    1
    16     1     2   ar
    17     2     3   ar
    18     3     4   ar
    19     4     5   ar
    20     5     6   ar
    21     5     7   ar
    22     7    13    1
    23    13    14   ar
    24    14    15   ar
    25    15    16   ar
    26    16    17   ar
    27    17    18   ar
    28    18    19   ar
    29    19    20   ar
    30    20    21   ar
    31    21    22   ar
    32     7     8   ar
    33     8     9   ar
    34     9    10    2
    35     9    11   ar
    36    11    12    1
    37    39    35   ar
    38    33    27   ar
    39     6     1   ar
    40    22    13   ar
    41    11     4   ar
    42    22    17   ar
    43    24    25    1
    44    24    26    1
@<TRIPOS>MOLECULE
*****
 39 44 0 0 0
SMALL
GASTEIGER

@<TRIPOS>ATOM
      1 C          62.9843   85.8957   12.7093 C.ar    1  UNL1       -0.0005
      2 C          63.8632   86.6507   13.6619 C.ar    1  UNL1       -0.0009
      3 C          64.0901   88.1207   13.4683 C.ar    1  UNL1        0.0170
      4 C          63.4381   88.8357   12.3222 C.ar    1  UNL1        0.0625
      5 C          62.5591   88.0807   11.3696 C.ar    1  UNL1        0.0158
      6 C          62.3322   86.6107   11.5632 C.ar    1  UNL1       -0.0009
      7 C          61.9071   88.7958   10.2235 C.ar    1  UNL1        0.0061
      8 C          62.1340   90.2658   10.0300 C.ar    1  UNL1        0.0608
      9 C          63.0129   91.0209   10.9826 C.ar    1  UNL1        0.2610
     10 O          63.2398   92.4909   10.7890 O.2     1  UNL1       -0.2670
     11 N          63.6650   90.3058   12.1287 N.ar    1  UNL1       -0.2935
     12 C          64.5439   91.0608   13.0812 C.3     1  UNL1        0.1335
     13 C          61.0281   88.0408    9.2710 C.ar    1  UNL1        0.0002
     14 C          59.6117   88.4813    9.0477 C.ar    1  UNL1        0.0000
     15 C          58.7328   87.7263    8.0952 C.ar    1  UNL1        0.0000
     16 C          59.2702   86.5308    7.3658 C.ar    1  UNL1        0.0000
     17 C          60.6865   86.0903    7.5890 C.ar    1  UNL1        0.0000
     18 C          61.2239   84.8948    6.8597 C.ar    1  UNL1        0.0000
     19 C          62.6404   84.4543    7.0829 C.ar    1  UNL1        0.0000
     20 C          63.5193   85.2092    8.0355 C.ar    1  UNL1        0.0000
     21 C          62.9819   86.4048    8.7648 C.ar    1  UNL1        0.0000
     22 C          61.5655   86.8453    8.5416 C.ar    1  UNL1        0.0000
     23 C          62.7573   84.4256   12.9028 C.3     1  UNL1        0.1128
     24 N          62.7063   84.2376   11.4155 N.3     1  UNL1       -0.3125
     25 H          62.5493   83.2525   11.2025 H       1  UNL1        0.1197
     26 H          63.5903   84.5377   11.0044 H       1  UNL1        0.1197
     27 C          62.5304   82.9556   13.0964 C.ar    1  UNL1       -0.0006
     28 C          61.6476   82.4730   14.2090 C.ar    1  UNL1       -0.0015
     29 C          61.4206   81.0030   14.4025 C.ar    1  UNL1        0.0111
     30 C          62.0765   80.0154   13.4835 C.ar    1  UNL1        0.0577
     31 CL         61.8496   78.5454   13.6771 Cl      1  UNL1       -0.0822
     32 C          62.9594   80.4979   12.3710 C.ar    1  UNL1        0.0111
     33 C          63.1863   81.9680   12.1774 C.ar    1  UNL1       -0.0015
     34 C          65.3351   83.8554   14.8209 C.3     1  UNL1        0.1318
     35 N          63.9933   84.3514   15.2718 N.ar    1  UNL1       -0.3088
     36 C          63.6007   84.6725   16.6835 C.ar    1  UNL1        0.1784
     37 N          62.1731   85.1330   16.6743 N.ar    1  UNL1       -0.2226
     38 C          61.6834   85.0966   15.2569 C.ar    1  UNL1        0.1152
     39 C          62.8084   84.6135   14.3901 C.ar    1  UNL1        0.0780
@<TRIPOS>BOND
     1    34    35    1
     2    35    36   ar
     3    36    37   ar
     4    37    38   ar
     5    38    39   ar
     6    39    23    1
     7    23    24    1
     8    23    27    1
     9    27    28   ar
    10    28    29   ar
    11    29    30   ar
    12    30    31    1
    13    30    32   ar
    14    32    33   ar
    15    23     1    1
    16     1     2   ar
    17     2     3   ar
    18     3     4   ar
    19     4     5   ar
    20     5     6   ar
    21     5     7   ar
    22     7    13    1
    23    13    14   ar
    24    14    15   ar
    25    15    16   ar
    26    16    17   ar
    27    17    18   ar
    28    18    19   ar
    29    19    20   ar
    30    20    21   ar
    31    21    22   ar
    32     7     8   ar
    33     8     9   ar
    34     9    10    2
    35     9    11   ar
    36    11    12    1
    37    39    35   ar
    38    33    27   ar
    39     6     1   ar
    40    22    13   ar
    41    11     4   ar
    42    22    17   ar
    43    24    25    1
    44    24    26    1
@<TRIPOS>MOLECULE
*****
 39 44 0 0 0
SMALL
GASTEIGER

@<TRIPOS>ATOM
      1 C          58.7229   94.4587   -0.9403 C.ar    1  UNL1       -0.0005
      2 C          58.7533   93.8726    0.4401 C.ar    1  UNL1       -0.0009
      3 C          60.0568   93.4387    1.0421 C.ar    1  UNL1        0.0170
      4 C          61.3300   93.5910    0.2638 C.ar    1  UNL1        0.0625
      5 C          61.2996   94.1771   -1.1166 C.ar    1  UNL1        0.0158
      6 C          59.9961   94.6109   -1.7186 C.ar    1  UNL1       -0.0009
      7 C          62.5728   94.3293   -1.8950 C.ar    1  UNL1        0.0061
      8 C          63.8764   93.8954   -1.2930 C.ar    1  UNL1        0.0608
      9 C          63.9068   93.3093    0.0875 C.ar    1  UNL1        0.2610
     10 O          65.2103   92.8754    0.6895 O.2     1  UNL1       -0.2670
     11 N          62.6336   93.1570    0.8658 N.ar    1  UNL1       -0.2935
     12 C          62.6640   92.5709    2.2462 C.3     1  UNL1        0.1335
     13 C          62.5424   94.9154   -3.2754 C.ar    1  UNL1        0.0002
     14 C          61.9337   96.2673   -3.5030 C.ar    1  UNL1        0.0000
     15 C          61.9033   96.8534   -4.8834 C.ar    1  UNL1        0.0000
     16 C          62.4817   96.0876   -6.0362 C.ar    1  UNL1        0.0000
     17 C          63.0904   94.7358   -5.8087 C.ar    1  UNL1        0.0000
     18 C          63.6688   93.9700   -6.9616 C.ar    1  UNL1        0.0000
     19 C          64.2775   92.6180   -6.7340 C.ar    1  UNL1        0.0000
     20 C          64.3079   92.0319   -5.3536 C.ar    1  UNL1        0.0000
     21 C          63.7295   92.7977   -4.2007 C.ar    1  UNL1        0.0000
     22 C          63.1208   94.1496   -4.4282 C.ar    1  UNL1        0.0000
     23 C          57.4193   94.8926   -1.5424 C.3     1  UNL1        0.1128
     24 N          57.5232   96.2043   -0.8221 N.3     1  UNL1       -0.3125
     25 H          56.7110   96.7797   -1.0449 H       1  UNL1        0.1197
     26 H          58.3726   96.6869   -1.1154 H       1  UNL1        0.1197
     27 C          56.1158   95.3265   -2.1444 C.ar    1  UNL1       -0.0006
     28 C          56.1067   96.2150   -3.3530 C.ar    1  UNL1       -0.0015
     29 C          54.8032   96.6489   -3.9550 C.ar    1  UNL1        0.0111
     30 C          53.5087   96.1943   -3.3487 C.ar    1  UNL1        0.0577
     31 CL         52.2052   96.6281   -3.9507 Cl      1  UNL1       -0.0822
     32 C          53.5178   95.3058   -2.1402 C.ar    1  UNL1        0.0111
     33 C          54.8214   94.8719   -1.5380 C.ar    1  UNL1       -0.0015
     34 C          58.5619   94.2496   -4.5307 C.3     1  UNL1        0.1318
     35 N          57.8407   93.2854   -3.6363 N.ar    1  UNL1       -0.3088
     36 C          57.5180   91.8564   -3.9583 C.ar    1  UNL1        0.1784
     37 N          56.7933   91.2687   -2.7837 N.ar    1  UNL1       -0.2226
     38 C          56.6681   92.3347   -1.7357 C.ar    1  UNL1        0.1152
     39 C          57.3154   93.5810   -2.2626 C.ar    1  UNL1        0.0780
@<TRIPOS>BOND
     1    34    35    1
     2    35    36   ar
     3    36    37   ar
     4    37    38   ar
     5    38    39   ar
     6    39    23    1
     7    23    24    1
     8    23    27    1
     9    27    28   ar
    10    28    29   ar
    11    29    30   ar
    12    30    31    1
    13    30    32   ar
    14    32    33   ar
    15    23     1    1
    16     1     2   ar
    17     2     3   ar
    18     3     4   ar
    19     4     5   ar
    20     5     6   ar
    21     5     7   ar
    22     7    13    1
    23    13    14   ar
    24    14    15   ar
    25    15    16   ar
    26    16    17   ar
    27    17    18   ar
    28    18    19   ar
    29    19    20   ar
    30    20    21   ar
    31    21    22   ar
    32     7     8   ar
    33     8     9   ar
    34     9    10    2
    35     9    11   ar
    36    11    12    1
    37    39    35   ar
    38    33    27   ar
    39     6     1   ar
    40    22    13   ar
    41    11     4   ar
    42    22    17   ar
    43    24    25    1
    44    24    26    1
@<TRIPOS>MOLECULE
*****
 39 44 0 0 0
SMALL
GASTEIGER

@<TRIPOS>ATOM
      1 C          63.5794   90.3116   12.0075 C.ar    1  UNL1       -0.0005
      2 C          62.8127   91.1582   11.0352 C.ar    1  UNL1       -0.0009
      3 C          61.8189   90.5228   10.1087 C.ar    1  UNL1        0.0170
      4 C          61.5917   89.0408   10.1544 C.ar    1  UNL1        0.0625
      5 C          62.3585   88.1942   11.1267 C.ar    1  UNL1        0.0158
      6 C          63.3523   88.8296   12.0532 C.ar    1  UNL1       -0.0009
      7 C          62.1313   86.7122   11.1724 C.ar    1  UNL1        0.0061
      8 C          61.1375   86.0768   10.2459 C.ar    1  UNL1        0.0608
      9 C          60.3707   86.9234    9.2736 C.ar    1  UNL1        0.2610
     10 O          59.3768   86.2880    8.3471 O.2     1  UNL1       -0.2670
     11 N          60.5978   88.4054    9.2278 N.ar    1  UNL1       -0.2935
     12 C          59.8311   89.2520    8.2556 C.3     1  UNL1        0.1335
     13 C          62.8981   85.8656   12.1447 C.ar    1  UNL1        0.0002
     14 C          63.1542   86.3659   13.5355 C.ar    1  UNL1        0.0000
     15 C          63.9209   85.5193   14.5077 C.ar    1  UNL1        0.0000
     16 C          64.4316   84.1724   14.0893 C.ar    1  UNL1        0.0000
     17 C          64.1754   83.6721   12.6986 C.ar    1  UNL1        0.0000
     18 C          64.6861   82.3251   12.2802 C.ar    1  UNL1        0.0000
     19 C          64.4299   81.8248   10.8894 C.ar    1  UNL1        0.0000
     20 C          63.6632   82.6714    9.9172 C.ar    1  UNL1        0.0000
     21 C          63.1526   84.0184   10.3356 C.ar    1  UNL1        0.0000
     22 C          63.4087   84.5187   11.7263 C.ar    1  UNL1        0.0000
     23 C          64.5734   90.9470   12.9341 C.3     1  UNL1        0.1128
     24 N          65.2237   91.6304   11.7679 N.3     1  UNL1       -0.3125
     25 H          66.0083   92.1926   12.0976 H       1  UNL1        0.1197
     26 H          64.5439   92.2337   11.3050 H       1  UNL1        0.1197
     27 C          65.5672   91.5823   13.8606 C.ar    1  UNL1       -0.0006
     28 C          67.0000   91.7250   13.4402 C.ar    1  UNL1       -0.0015
     29 C          67.9939   92.3603   14.3667 C.ar    1  UNL1        0.0111
     30 C          67.5550   92.8530   15.7138 C.ar    1  UNL1        0.0577
     31 CL         68.5488   93.4883   16.6404 Cl      1  UNL1       -0.0822
     32 C          66.1222   92.7103   16.1343 C.ar    1  UNL1        0.0111
     33 C          65.1283   92.0750   15.2077 C.ar    1  UNL1       -0.0015
     34 C          65.9047   88.5983   14.7672 C.3     1  UNL1        0.1318
     35 N          64.5350   89.1839   14.9429 N.ar    1  UNL1       -0.3088
     36 C          63.5367   88.7928   15.9919 C.ar    1  UNL1        0.1784
     37 N          62.3078   89.6307   15.7977 N.ar    1  UNL1       -0.2226
     38 C          62.5466   90.5397   14.6285 C.ar    1  UNL1        0.1152
     39 C          63.9230   90.2635   14.1002 C.ar    1  UNL1        0.0780
@<TRIPOS>BOND
     1    34    35    1
     2    35    36   ar
     3    36    37   ar
     4    37    38   ar
     5    38    39   ar
     6    39    23    1
     7    23    24    1
     8    23    27    1
     9    27    28   ar
    10    28    29   ar
    11    29    30   ar
    12    30    31    1
    13    30    32   ar
    14    32    33   ar
    15    23     1    1
    16     1     2   ar
    17     2     3   ar
    18     3     4   ar
    19     4     5   ar
    20     5     6   ar
    21     5     7   ar
    22     7    13    1
    23    13    14   ar
    24    14    15   ar
    25    15    16   ar
    26    16    17   ar
    27    17    18   ar
    28    18    19   ar
    29    19    20   ar
    30    20    21   ar
    31    21    22   ar
    32     7     8   ar
    33     8     9   ar
    34     9    10    2
    35     9    11   ar
    36    11    12    1
    37    39    35   ar
    38    33    27   ar
    39     6     1   ar
    40    22    13   ar
    41    11     4   ar
    42    22    17   ar
    43    24    25    1
    44    24    26    1
@<TRIPOS>MOLECULE
*****
 39 44 0 0 0
SMALL
GASTEIGER

@<TRIPOS>ATOM
      1 C          58.1111   94.9893   -4.2748 C.ar    1  UNL1       -0.0005
      2 C          58.5588   94.6742   -5.6713 C.ar    1  UNL1       -0.0009
      3 C          60.0097   94.4194   -5.9541 C.ar    1  UNL1        0.0170
      4 C          61.0128   94.4796   -4.8404 C.ar    1  UNL1        0.0625
      5 C          60.5650   94.7947   -3.4440 C.ar    1  UNL1        0.0158
      6 C          59.1141   95.0496   -3.1611 C.ar    1  UNL1       -0.0009
      7 C          61.5681   94.8550   -2.3303 C.ar    1  UNL1        0.0061
      8 C          63.0189   94.6002   -2.6131 C.ar    1  UNL1        0.0608
      9 C          63.4668   94.2850   -4.0097 C.ar    1  UNL1        0.2610
     10 O          64.9176   94.0302   -4.2925 O.2     1  UNL1       -0.2670
     11 N          62.4637   94.2248   -5.1233 N.ar    1  UNL1       -0.2935
     12 C          62.9115   93.9097   -6.5198 C.3     1  UNL1        0.1335
     13 C          61.1203   95.1701   -0.9339 C.ar    1  UNL1        0.0002
     14 C          60.6070   96.5400   -0.6019 C.ar    1  UNL1        0.0000
     15 C          60.1593   96.8551    0.7946 C.ar    1  UNL1        0.0000
     16 C          60.2247   95.8004    1.8591 C.ar    1  UNL1        0.0000
     17 C          60.7379   94.4306    1.5272 C.ar    1  UNL1        0.0000
     18 C          60.8033   93.3759    2.5918 C.ar    1  UNL1        0.0000
     19 C          61.3166   92.0060    2.2599 C.ar    1  UNL1        0.0000
     20 C          61.7644   91.6909    0.8634 C.ar    1  UNL1        0.0000
     21 C          61.6989   92.7456   -0.2012 C.ar    1  UNL1        0.0000
     22 C          61.1857   94.1154    0.1307 C.ar    1  UNL1        0.0000
     23 C          56.6601   95.2442   -3.9919 C.3     1  UNL1        0.1128
     24 N          56.9546   96.7017   -3.7947 N.3     1  UNL1       -0.3125
     25 H          56.0911   97.1954   -3.5687 H       1  UNL1        0.1197
     26 H          57.3524   97.0871   -4.6512 H       1  UNL1        0.1197
     27 C          55.2093   95.4990   -3.7091 C.ar    1  UNL1       -0.0006
     28 C          54.2826   95.8776   -4.8262 C.ar    1  UNL1       -0.0015
     29 C          52.8317   96.1324   -4.5433 C.ar    1  UNL1        0.0111
     30 C          52.3075   96.0086   -3.1434 C.ar    1  UNL1        0.0577
     31 CL         50.8566   96.2634   -2.8605 Cl      1  UNL1       -0.0822
     32 C          53.2341   95.6300   -2.0263 C.ar    1  UNL1        0.0111
     33 C          54.6851   95.3752   -2.3091 C.ar    1  UNL1       -0.0015
     34 C          56.8864   92.9166   -1.7159 C.3     1  UNL1        0.1318
     35 N          56.4697   92.7167   -3.1429 N.ar    1  UNL1       -0.3088
     36 C          56.0839   91.4119   -3.7743 C.ar    1  UNL1        0.1784
     37 N          55.7414   91.6754   -5.2107 N.ar    1  UNL1       -0.2226
     38 C          55.9156   93.1431   -5.4671 C.ar    1  UNL1        0.1152
     39 C          56.3657   93.7867   -4.1891 C.ar    1  UNL1        0.0780
@<TRIPOS>BOND
     1    34    35    1
     2    35    36   ar
     3    36    37   ar
     4    37    38   ar
     5    38    39   ar
     6    39    23    1
     7    23    24    1
     8    23    27    1
     9    27    28   ar
    10    28    29   ar
    11    29    30   ar
    12    30    31    1
    13    30    32   ar
    14    32    33   ar
    15    23     1    1
    16     1     2   ar
    17     2     3   ar
    18     3     4   ar
    19     4     5   ar
    20     5     6   ar
    21     5     7   ar
    22     7    13    1
    23    13    14   ar
    24    14    15   ar
    25    15    16   ar
    26    16    17   ar
    27    17    18   ar
    28    18    19   ar
    29    19    20   ar
    30    20    21   ar
    31    21    22   ar
    32     7     8   ar
    33     8     9   ar
    34     9    10    2
    35     9    11   ar
    36    11    12    1
    37    39    35   ar
    38    33    27   ar
    39     6     1   ar
    40    22    13   ar
    41    11     4   ar
    42    22    17   ar
    43    24    25    1
    44    24    26    1
@<TRIPOS>MOLECULE
*****
 39 44 0 0 0
SMALL
GASTEIGER

@<TRIPOS>ATOM
      1 C          58.3290   93.3440   -2.1900 C.ar    1  UNL1       -0.0005
      2 C          58.0293   93.3264   -0.7204 C.ar    1  UNL1       -0.0009
      3 C          58.9452   94.0252    0.2402 C.ar    1  UNL1        0.0170
      4 C          60.1608   94.7416   -0.2688 C.ar    1  UNL1        0.0625
      5 C          60.4606   94.7591   -1.7384 C.ar    1  UNL1        0.0158
      6 C          59.5447   94.0603   -2.6990 C.ar    1  UNL1       -0.0009
      7 C          61.6762   95.4754   -2.2475 C.ar    1  UNL1        0.0061
      8 C          62.5921   96.1742   -1.2869 C.ar    1  UNL1        0.0608
      9 C          62.2923   96.1567    0.1828 C.ar    1  UNL1        0.2610
     10 O          63.2082   96.8555    1.1434 O.2     1  UNL1       -0.2670
     11 N          61.0767   95.4404    0.6919 N.ar    1  UNL1       -0.2935
     12 C          60.7770   95.4228    2.1615 C.3     1  UNL1        0.1335
     13 C          61.9759   95.4930   -3.7171 C.ar    1  UNL1        0.0002
     14 C          61.4333   96.5934   -4.5801 C.ar    1  UNL1        0.0000
     15 C          61.7330   96.6109   -6.0497 C.ar    1  UNL1        0.0000
     16 C          62.5754   95.5281   -6.6564 C.ar    1  UNL1        0.0000
     17 C          63.1180   94.4278   -5.7934 C.ar    1  UNL1        0.0000
     18 C          63.9604   93.3450   -6.4000 C.ar    1  UNL1        0.0000
     19 C          64.5030   92.2446   -5.5369 C.ar    1  UNL1        0.0000
     20 C          64.2033   92.2271   -4.0673 C.ar    1  UNL1        0.0000
     21 C          63.3609   93.3099   -3.4607 C.ar    1  UNL1        0.0000
     22 C          62.8183   94.4102   -4.3237 C.ar    1  UNL1        0.0000
     23 C          57.4131   92.6451   -3.1507 C.3     1  UNL1        0.1128
     24 N          58.4615   91.5992   -3.3894 N.3     1  UNL1       -0.3125
     25 H          58.1119   90.9142   -4.0594 H       1  UNL1        0.1197
     26 H          58.6825   91.1324   -2.5099 H       1  UNL1        0.1197
     27 C          56.4972   91.9464   -4.1113 C.ar    1  UNL1       -0.0006
     28 C          55.6717   90.7825   -3.6487 C.ar    1  UNL1       -0.0015
     29 C          54.7558   90.0838   -4.6094 C.ar    1  UNL1        0.0111
     30 C          54.6654   90.5488   -6.0326 C.ar    1  UNL1        0.0577
     31 CL         53.7495   89.8501   -6.9932 Cl      1  UNL1       -0.0822
     32 C          55.4909   91.7126   -6.4952 C.ar    1  UNL1        0.0111
     33 C          56.4068   92.4115   -5.5345 C.ar    1  UNL1       -0.0015
     34 C          57.1626   95.5008   -4.7101 C.3     1  UNL1        0.1318
     35 N          56.2496   95.0037   -3.6287 N.ar    1  UNL1       -0.3088
     36 C          55.0612   95.7319   -3.0743 C.ar    1  UNL1        0.1784
     37 N          54.4418   94.8694   -2.0149 N.ar    1  UNL1       -0.2226
     38 C          55.2475   93.6080   -1.9145 C.ar    1  UNL1        0.1152
     39 C          56.3648   93.6910   -2.9120 C.ar    1  UNL1        0.0780
@<TRIPOS>BOND
     1    34    35    1
     2    35    36   ar
     3    36    37   ar
     4    37    38   ar
     5    38    39   ar
     6    39    23    1
     7    23    24    1
     8    23    27    1
     9    27    28   ar
    10    28    29   ar
    11    29    30   ar
    12    30    31    1
    13    30    32   ar
    14    32    33   ar
    15    23     1    1
    16     1     2   ar
    17     2     3   ar
    18     3     4   ar
    19     4     5   ar
    20     5     6   ar
    21     5     7   ar
    22     7    13    1
    23    13    14   ar
    24    14    15   ar
    25    15    16   ar
    26    16    17   ar
    27    17    18   ar
    28    18    19   ar
    29    19    20   ar
    30    20    21   ar
    31    21    22   ar
    32     7     8   ar
    33     8     9   ar
    34     9    10    2
    35     9    11   ar
    36    11    12    1
    37    39    35   ar
    38    33    27   ar
    39     6     1   ar
    40    22    13   ar
    41    11     4   ar
    42    22    17   ar
    43    24    25    1
    44    24    26    1
@<TRIPOS>MOLECULE
*****
 39 44 0 0 0
SMALL
GASTEIGER

@<TRIPOS>ATOM
      1 C          58.6878   93.5765   -2.5210 C.ar    1  UNL1       -0.0005
      2 C          58.1193   94.0835   -1.2288 C.ar    1  UNL1       -0.0009
      3 C          59.0157   94.7410   -0.2219 C.ar    1  UNL1        0.0170
      4 C          60.4807   94.8915   -0.5070 C.ar    1  UNL1        0.0625
      5 C          61.0492   94.3845   -1.7992 C.ar    1  UNL1        0.0158
      6 C          60.1528   93.7270   -2.8061 C.ar    1  UNL1       -0.0009
      7 C          62.5141   94.5350   -2.0843 C.ar    1  UNL1        0.0061
      8 C          63.4105   95.1926   -1.0773 C.ar    1  UNL1        0.0608
      9 C          62.8420   95.6996    0.2149 C.ar    1  UNL1        0.2610
     10 O          63.7385   96.3571    1.2219 O.2     1  UNL1       -0.2670
     11 N          61.3771   95.5491    0.5001 N.ar    1  UNL1       -0.2935
     12 C          60.8086   96.0561    1.7922 C.3     1  UNL1        0.1335
     13 C          63.0827   94.0280   -3.3764 C.ar    1  UNL1        0.0002
     14 C          63.8634   92.7474   -3.4011 C.ar    1  UNL1        0.0000
     15 C          64.4319   92.2404   -4.6932 C.ar    1  UNL1        0.0000
     16 C          64.2197   93.0139   -5.9608 C.ar    1  UNL1        0.0000
     17 C          63.4391   94.2945   -5.9362 C.ar    1  UNL1        0.0000
     18 C          63.2269   95.0680   -7.2037 C.ar    1  UNL1        0.0000
     19 C          62.4462   96.3487   -7.1790 C.ar    1  UNL1        0.0000
     20 C          61.8777   96.8557   -5.8869 C.ar    1  UNL1        0.0000
     21 C          62.0898   96.0821   -4.6194 C.ar    1  UNL1        0.0000
     22 C          62.8705   94.8016   -4.6440 C.ar    1  UNL1        0.0000
     23 C          57.7914   92.9189   -3.5280 C.3     1  UNL1        0.1128
     24 N          57.9227   91.6170   -2.7949 N.3     1  UNL1       -0.3125
     25 H          57.3778   90.9003   -3.2743 H       1  UNL1        0.1197
     26 H          57.5761   91.7269   -1.8419 H       1  UNL1        0.1197
     27 C          56.8950   92.2614   -4.5351 C.ar    1  UNL1       -0.0006
     28 C          55.8534   91.2805   -4.0846 C.ar    1  UNL1       -0.0015
     29 C          54.9570   90.6231   -5.0916 C.ar    1  UNL1        0.0111
     30 C          55.1022   90.9464   -6.5492 C.ar    1  UNL1        0.0577
     31 CL         54.2058   90.2889   -7.5562 Cl      1  UNL1       -0.0822
     32 C          56.1438   91.9272   -6.9996 C.ar    1  UNL1        0.0111
     33 C          57.0403   92.5848   -5.9926 C.ar    1  UNL1       -0.0015
     34 C          55.3094   95.0222   -3.2726 C.3     1  UNL1        0.1318
     35 N          56.5192   95.1877   -4.1438 N.ar    1  UNL1       -0.3088
     36 C          56.8006   96.3491   -5.0505 C.ar    1  UNL1        0.1784
     37 N          58.1154   96.1000   -5.7284 N.ar    1  UNL1       -0.2226
     38 C          58.6466   94.7847   -5.2405 C.ar    1  UNL1        0.1152
     39 C          57.6601   94.2209   -4.2612 C.ar    1  UNL1        0.0780
@<TRIPOS>BOND
     1    34    35    1
     2    35    36   ar
     3    36    37   ar
     4    37    38   ar
     5    38    39   ar
     6    39    23    1
     7    23    24    1
     8    23    27    1
     9    27    28   ar
    10    28    29   ar
    11    29    30   ar
    12    30    31    1
    13    30    32   ar
    14    32    33   ar
    15    23     1    1
    16     1     2   ar
    17     2     3   ar
    18     3     4   ar
    19     4     5   ar
    20     5     6   ar
    21     5     7   ar
    22     7    13    1
    23    13    14   ar
    24    14    15   ar
    25    15    16   ar
    26    16    17   ar
    27    17    18   ar
    28    18    19   ar
    29    19    20   ar
    30    20    21   ar
    31    21    22   ar
    32     7     8   ar
    33     8     9   ar
    34     9    10    2
    35     9    11   ar
    36    11    12    1
    37    39    35   ar
    38    33    27   ar
    39     6     1   ar
    40    22    13   ar
    41    11     4   ar
    42    22    17   ar
    43    24    25    1
    44    24    26    1
@<TRIPOS>MOLECULE
*****
 39 44 0 0 0
SMALL
GASTEIGER

@<TRIPOS>ATOM
      1 C          63.2979   90.3226   12.2530 C.ar    1  UNL1       -0.0005
      2 C          62.8143   90.1563   13.6631 C.ar    1  UNL1       -0.0009
      3 C          63.5685   90.7901   14.7943 C.ar    1  UNL1        0.0170
      4 C          64.8063   91.5901   14.5153 C.ar    1  UNL1        0.0625
      5 C          65.2899   91.7564   13.1052 C.ar    1  UNL1        0.0158
      6 C          64.5357   91.1226   11.9741 C.ar    1  UNL1       -0.0009
      7 C          66.5277   92.5564   12.8263 C.ar    1  UNL1        0.0061
      8 C          67.2819   93.1902   13.9574 C.ar    1  UNL1        0.0608
      9 C          66.7982   93.0239   15.3676 C.ar    1  UNL1        0.2610
     10 O          67.5524   93.6577   16.4987 O.2     1  UNL1       -0.2670
     11 N          65.5604   92.2239   15.6465 N.ar    1  UNL1       -0.2935
     12 C          65.0768   92.0577   17.0566 C.3     1  UNL1        0.1335
     13 C          67.0113   92.7226   11.4162 C.ar    1  UNL1        0.0002
     14 C          67.8480   91.6529   10.7792 C.ar    1  UNL1        0.0000
     15 C          68.3316   91.8191    9.3691 C.ar    1  UNL1        0.0000
     16 C          67.9787   93.0551    8.5959 C.ar    1  UNL1        0.0000
     17 C          67.1421   94.1248    9.2329 C.ar    1  UNL1        0.0000
     18 C          66.7892   95.3608    8.4597 C.ar    1  UNL1        0.0000
     19 C          65.9525   96.4306    9.0967 C.ar    1  UNL1        0.0000
     20 C          65.4689   96.2644   10.5068 C.ar    1  UNL1        0.0000
     21 C          65.8218   95.0284   11.2800 C.ar    1  UNL1        0.0000
     22 C          66.6584   93.9586   10.6430 C.ar    1  UNL1        0.0000
     23 C          62.5438   89.6888   11.1218 C.3     1  UNL1        0.1128
     24 N          62.5529   90.9947   10.3840 N.3     1  UNL1       -0.3125
     25 H          62.0715   90.8843    9.4915 H       1  UNL1        0.1197
     26 H          63.5167   91.2841   10.2169 H       1  UNL1        0.1197
     27 C          61.7897   89.0550    9.9906 C.ar    1  UNL1       -0.0006
     28 C          60.6400   89.7801    9.3562 C.ar    1  UNL1       -0.0015
     29 C          59.8858   89.1463    8.2251 C.ar    1  UNL1        0.0111
     30 C          60.2813   87.7874    7.7283 C.ar    1  UNL1        0.0577
     31 CL         59.5272   87.1536    6.5971 Cl      1  UNL1       -0.0822
     32 C          61.4310   87.0622    8.3626 C.ar    1  UNL1        0.0111
     33 C          62.1852   87.6960    9.4939 C.ar    1  UNL1       -0.0015
     34 C          59.9150   87.8619   11.7551 C.3     1  UNL1        0.1318
     35 N          61.3262   87.5431   12.1508 N.ar    1  UNL1       -0.3088
     36 C          61.7770   86.3286   12.9070 C.ar    1  UNL1        0.1784
     37 N          63.2640   86.4177   13.0832 N.ar    1  UNL1       -0.2226
     38 C          63.7322   87.6873   12.4359 C.ar    1  UNL1        0.1152
     39 C          62.5346   88.3828   11.8596 C.ar    1  UNL1        0.0780
@<TRIPOS>BOND
     1    34    35    1
     2    35    36   ar
     3    36    37   ar
     4    37    38   ar
     5    38    39   ar
     6    39    23    1
     7    23    24    1
     8    23    27    1
     9    27    28   ar
    10    28    29   ar
    11    29    30   ar
    12    30    31    1
    13    30    32   ar
    14    32    33   ar
    15    23     1    1
    16     1     2   ar
    17     2     3   ar
    18     3     4   ar
    19     4     5   ar
    20     5     6   ar
    21     5     7   ar
    22     7    13    1
    23    13    14   ar
    24    14    15   ar
    25    15    16   ar
    26    16    17   ar
    27    17    18   ar
    28    18    19   ar
    29    19    20   ar
    30    20    21   ar
    31    21    22   ar
    32     7     8   ar
    33     8     9   ar
    34     9    10    2
    35     9    11   ar
    36    11    12    1
    37    39    35   ar
    38    33    27   ar
    39     6     1   ar
    40    22    13   ar
    41    11     4   ar
    42    22    17   ar
    43    24    25    1
    44    24    26    1
