@<TRIPOS>MOLECULE
*****
 21 22 0 0 0
SMALL
GASTEIGER

@<TRIPOS>ATOM
      1 C          63.5721   90.5592   12.3951 C.ar    1  UNL1        0.0003
      2 C          64.2102   90.4647   13.7493 C.ar    1  UNL1        0.0031
      3 C          65.3807   91.3389   14.0894 C.ar    1  UNL1        0.0372
      4 C          65.9130   92.3077   13.0754 C.ar    1  UNL1        0.1468
      5 C          65.2748   92.4022   11.7213 C.ar    1  UNL1        0.0372
      6 C          64.1044   91.5280   11.3811 C.ar    1  UNL1        0.0031
      7 C          62.5534   88.5889   11.0423 C.2     1  UNL1        0.0435
      8 C          62.4016   89.6850   12.0549 C.2     1  UNL1        0.0033
      9 O          61.0049   86.5811   11.6089 O.2     1  UNL1       -0.2850
     10 C          61.3829   87.7147   10.7021 C.2     1  UNL1        0.2111
     11 C          60.5905   87.9740    9.4552 C.ar    1  UNL1        0.0961
     12 C          59.8174   86.9534    8.6737 C.ar    1  UNL1        0.0218
     13 C          59.1811   87.6481    7.5064 C.ar    1  UNL1        0.0200
     14 C          59.5609   89.0980    7.5665 C.ar    1  UNL1        0.0725
     15 N          60.4319   89.2994    8.7710 N.ar    1  UNL1       -0.3495
     16 H          60.8297   90.1518    9.0614 H       1  UNL1        0.1661
     17 O          67.0835   93.1819   13.4156 O.3     1  UNL1       -0.4045
     18 C          68.0485   92.7610   14.4840 C.3     1  UNL1        0.5753
     19 F          69.0136   92.3400   15.5524 F       1  UNL1       -0.1328
     20 F          68.6200   91.7266   13.5603 F       1  UNL1       -0.1328
     21 F          67.4771   93.7954   15.4077 F       1  UNL1       -0.1328
@<TRIPOS>BOND
     1     9    10    2
     2    10     7    1
     3     7     8    2
     4     8     1    1
     5     1     2   ar
     6     2     3   ar
     7     3     4   ar
     8     4    17    1
     9    17    18    1
    10    18    19    1
    11    18    20    1
    12    18    21    1
    13     4     5   ar
    14     5     6   ar
    15    10    11    1
    16    11    12   ar
    17    12    13   ar
    18    13    14   ar
    19    14    15   ar
    20     6     1   ar
    21    15    11   ar
    22    15    16    1
@<TRIPOS>MOLECULE
*****
 21 22 0 0 0
SMALL
GASTEIGER

@<TRIPOS>ATOM
      1 C          63.1684   90.2889   11.5930 C.ar    1  UNL1        0.0003
      2 C          62.3102   90.5199   10.3847 C.ar    1  UNL1        0.0031
      3 C          61.5179   89.3884    9.8001 C.ar    1  UNL1        0.0372
      4 C          61.5837   88.0258   10.4238 C.ar    1  UNL1        0.1468
      5 C          62.4420   87.7947   11.6321 C.ar    1  UNL1        0.0372
      6 C          63.2343   88.9263   12.2167 C.ar    1  UNL1        0.0031
      7 C          65.0042   92.1113   11.3506 C.2     1  UNL1        0.0435
      8 C          63.9608   91.4204   12.1776 C.2     1  UNL1        0.0033
      9 O          65.8197   94.5760   11.2481 O.2     1  UNL1       -0.2850
     10 C          65.7966   93.2429   11.9353 C.2     1  UNL1        0.2111
     11 C          66.5658   93.0413   13.2072 C.ar    1  UNL1        0.0961
     12 C          67.4402   91.8667   13.5319 C.ar    1  UNL1        0.0218
     13 C          68.0105   92.0783   14.9030 C.ar    1  UNL1        0.0200
     14 C          67.4885   93.3839   15.4257 C.ar    1  UNL1        0.0725
     15 N          66.5956   93.9790   14.3776 N.ar    1  UNL1       -0.3495
     16 H          66.1137   94.8348   14.4459 H       1  UNL1        0.1661
     17 O          60.7914   86.8942    9.8391 O.3     1  UNL1       -0.4045
     18 C          61.2138   86.2756    8.5396 C.3     1  UNL1        0.5753
     19 F          61.6363   85.6570    7.2400 F       1  UNL1       -0.1328
     20 F          62.6505   86.5378    8.8818 F       1  UNL1       -0.1328
     21 F          59.7771   86.0135    8.1973 F       1  UNL1       -0.1328
@<TRIPOS>BOND
     1     9    10    2
     2    10     7    1
     3     7     8    2
     4     8     1    1
     5     1     2   ar
     6     2     3   ar
     7     3     4   ar
     8     4    17    1
     9    17    18    1
    10    18    19    1
    11    18    20    1
    12    18    21    1
    13     4     5   ar
    14     5     6   ar
    15    10    11    1
    16    11    12   ar
    17    12    13   ar
    18    13    14   ar
    19    14    15   ar
    20     6     1   ar
    21    15    11   ar
    22    15    16    1
@<TRIPOS>MOLECULE
*****
 21 22 0 0 0
SMALL
GASTEIGER

@<TRIPOS>ATOM
      1 C          64.1320   91.5765   11.2292 C.ar    1  UNL1        0.0003
      2 C          65.2219   92.3536   10.5524 C.ar    1  UNL1        0.0031
      3 C          66.4473   92.7515   11.3206 C.ar    1  UNL1        0.0372
      4 C          66.5827   92.3722   12.7655 C.ar    1  UNL1        0.1468
      5 C          65.4928   91.5951   13.4423 C.ar    1  UNL1        0.0372
      6 C          64.2674   91.1973   12.6742 C.ar    1  UNL1        0.0031
      7 C          62.1732   89.9197   10.8184 C.2     1  UNL1        0.0435
      8 C          62.9065   91.1785   10.4611 C.2     1  UNL1        0.0033
      9 O          59.7691   90.4474    9.9866 O.2     1  UNL1       -0.2850
     10 C          60.9478   89.5218   10.0502 C.2     1  UNL1        0.2111
     11 C          60.9010   88.1984    9.3458 C.ar    1  UNL1        0.0961
     12 C          61.9653   87.1420    9.3825 C.ar    1  UNL1        0.0218
     13 C          61.5039   85.9897    8.5404 C.ar    1  UNL1        0.0200
     14 C          60.1543   86.3338    7.9832 C.ar    1  UNL1        0.0725
     15 N          59.7818   87.6989    8.4810 N.ar    1  UNL1       -0.3495
     16 H          58.9489   88.1822    8.2761 H       1  UNL1        0.1661
     17 O          67.8082   92.7702   13.5337 O.3     1  UNL1       -0.4045
     18 C          67.6963   93.1484   14.9808 C.3     1  UNL1        0.5753
     19 F          67.5844   93.5268   16.4281 F       1  UNL1       -0.1328
     20 F          66.7781   94.2767   14.6149 F       1  UNL1       -0.1328
     21 F          68.6145   92.0202   15.3467 F       1  UNL1       -0.1328
@<TRIPOS>BOND
     1     9    10    2
     2    10     7    1
     3     7     8    2
     4     8     1    1
     5     1     2   ar
     6     2     3   ar
     7     3     4   ar
     8     4    17    1
     9    17    18    1
    10    18    19    1
    11    18    20    1
    12    18    21    1
    13     4     5   ar
    14     5     6   ar
    15    10    11    1
    16    11    12   ar
    17    12    13   ar
    18    13    14   ar
    19    14    15   ar
    20     6     1   ar
    21    15    11   ar
    22    15    16    1
@<TRIPOS>MOLECULE
*****
 21 22 0 0 0
SMALL
GASTEIGER

@<TRIPOS>ATOM
      1 C          64.1878   91.5909   11.4047 C.ar    1  UNL1        0.0003
      2 C          64.2725   91.2373   12.8599 C.ar    1  UNL1        0.0031
      3 C          65.4853   91.6199   13.6553 C.ar    1  UNL1        0.0372
      4 C          66.6134   92.3560   12.9954 C.ar    1  UNL1        0.1468
      5 C          66.5287   92.7096   11.5402 C.ar    1  UNL1        0.0372
      6 C          65.3159   92.3270   10.7448 C.ar    1  UNL1        0.0031
      7 C          62.2699   89.9149   10.8920 C.2     1  UNL1        0.0435
      8 C          62.9749   91.2083   10.6092 C.2     1  UNL1        0.0033
      9 O          59.8889   90.4696   10.0125 O.2     1  UNL1       -0.2850
     10 C          61.0570   89.5323   10.0965 C.2     1  UNL1        0.2111
     11 C          61.0123   88.2125    9.3851 C.ar    1  UNL1        0.0961
     12 C          62.0678   87.1480    9.4349 C.ar    1  UNL1        0.0218
     13 C          61.6121   86.0031    8.5796 C.ar    1  UNL1        0.0200
     14 C          60.2749   86.3601    8.0012 C.ar    1  UNL1        0.0725
     15 N          59.9042   87.7256    8.4991 N.ar    1  UNL1       -0.3495
     16 H          59.0786   88.2161    8.2824 H       1  UNL1        0.1661
     17 O          67.8263   92.7386   13.7908 O.3     1  UNL1       -0.4045
     18 C          67.8341   92.5584   15.2799 C.3     1  UNL1        0.5753
     19 F          67.8419   92.3783   16.7691 F       1  UNL1       -0.1328
     20 F          67.6547   94.0367   15.4598 F       1  UNL1       -0.1328
     21 F          68.0135   91.0801   15.1001 F       1  UNL1       -0.1328
@<TRIPOS>BOND
     1     9    10    2
     2    10     7    1
     3     7     8    2
     4     8     1    1
     5     1     2   ar
     6     2     3   ar
     7     3     4   ar
     8     4    17    1
     9    17    18    1
    10    18    19    1
    11    18    20    1
    12    18    21    1
    13     4     5   ar
    14     5     6   ar
    15    10    11    1
    16    11    12   ar
    17    12    13   ar
    18    13    14   ar
    19    14    15   ar
    20     6     1   ar
    21    15    11   ar
    22    15    16    1
@<TRIPOS>MOLECULE
*****
 21 22 0 0 0
SMALL
GASTEIGER

@<TRIPOS>ATOM
      1 C          64.0641   86.4103   14.2042 C.ar    1  UNL1        0.0003
      2 C          64.5444   85.4979   15.2935 C.ar    1  UNL1        0.0031
      3 C          64.3492   84.0157   15.1708 C.ar    1  UNL1        0.0372
      4 C          63.6737   83.4460   13.9587 C.ar    1  UNL1        0.1468
      5 C          63.1934   84.3584   12.8694 C.ar    1  UNL1        0.0372
      6 C          63.3886   85.8405   12.9921 C.ar    1  UNL1        0.0031
      7 C          63.6077   88.6444   15.4494 C.2     1  UNL1        0.0435
      8 C          64.2592   87.8925   14.3268 C.2     1  UNL1        0.0033
      9 O          63.3513   90.8426   16.8104 O.2     1  UNL1       -0.2850
     10 C          63.8029   90.1266   15.5721 C.2     1  UNL1        0.2111
     11 C          64.4497   90.8928   14.4565 C.ar    1  UNL1        0.0961
     12 C          65.8703   91.3730   14.4245 C.ar    1  UNL1        0.0218
     13 C          66.0880   92.0903   13.1252 C.ar    1  UNL1        0.0200
     14 C          64.8019   92.0534   12.3542 C.ar    1  UNL1        0.0725
     15 N          63.7893   91.3133   13.1770 N.ar    1  UNL1       -0.3495
     16 H          62.8553   91.1349   12.9220 H       1  UNL1        0.1661
     17 O          63.4786   81.9637   13.8361 O.3     1  UNL1       -0.4045
     18 C          62.0942   81.3865   13.8425 C.3     1  UNL1        0.5753
     19 F          60.7097   80.8092   13.8489 F       1  UNL1       -0.1328
     20 F          62.5091   80.3798   12.8108 F       1  UNL1       -0.1328
     21 F          61.6792   82.3931   14.8741 F       1  UNL1       -0.1328
@<TRIPOS>BOND
     1     9    10    2
     2    10     7    1
     3     7     8    2
     4     8     1    1
     5     1     2   ar
     6     2     3   ar
     7     3     4   ar
     8     4    17    1
     9    17    18    1
    10    18    19    1
    11    18    20    1
    12    18    21    1
    13     4     5   ar
    14     5     6   ar
    15    10    11    1
    16    11    12   ar
    17    12    13   ar
    18    13    14   ar
    19    14    15   ar
    20     6     1   ar
    21    15    11   ar
    22    15    16    1
@<TRIPOS>MOLECULE
*****
 21 22 0 0 0
SMALL
GASTEIGER

@<TRIPOS>ATOM
      1 C          63.7112   90.9269   11.9020 C.ar    1  UNL1        0.0003
      2 C          63.9805   91.6556   10.6189 C.ar    1  UNL1        0.0031
      3 C          65.0351   92.7209   10.5685 C.ar    1  UNL1        0.0372
      4 C          65.8206   93.0576   11.8013 C.ar    1  UNL1        0.1468
      5 C          65.5513   92.3290   13.0844 C.ar    1  UNL1        0.0372
      6 C          64.4966   91.2636   13.1348 C.ar    1  UNL1        0.0031
      7 C          61.8673   89.5285   10.7211 C.2     1  UNL1        0.0435
      8 C          62.6565   89.8615   11.9524 C.2     1  UNL1        0.0033
      9 O          59.9373   88.3309   11.9825 O.2     1  UNL1       -0.2850
     10 C          60.8125   88.4631   10.7715 C.2     1  UNL1        0.2111
     11 C          60.6331   87.5299    9.6110 C.ar    1  UNL1        0.0961
     12 C          61.6574   86.5673    9.0871 C.ar    1  UNL1        0.0218
     13 C          61.0553   85.8379    7.9229 C.ar    1  UNL1        0.0200
     14 C          59.6588   86.3496    7.7273 C.ar    1  UNL1        0.0725
     15 N          59.3980   87.3953    8.7706 N.ar    1  UNL1       -0.3495
     16 H          58.5627   87.9040    8.8838 H       1  UNL1        0.1661
     17 O          66.8753   94.1231   11.7509 O.3     1  UNL1       -0.4045
     18 C          66.7477   95.2594   10.7801 C.3     1  UNL1        0.5753
     19 F          66.6201   96.3958    9.8093 F       1  UNL1       -0.1328
     20 F          65.7558   95.9238   11.6882 F       1  UNL1       -0.1328
     21 F          67.7396   94.5949    9.8720 F       1  UNL1       -0.1328
@<TRIPOS>BOND
     1     9    10    2
     2    10     7    1
     3     7     8    2
     4     8     1    1
     5     1     2   ar
     6     2     3   ar
     7     3     4   ar
     8     4    17    1
     9    17    18    1
    10    18    19    1
    11    18    20    1
    12    18    21    1
    13     4     5   ar
    14     5     6   ar
    15    10    11    1
    16    11    12   ar
    17    12    13   ar
    18    13    14   ar
    19    14    15   ar
    20     6     1   ar
    21    15    11   ar
    22    15    16    1
@<TRIPOS>MOLECULE
*****
 21 22 0 0 0
SMALL
GASTEIGER

@<TRIPOS>ATOM
      1 C          63.3379   90.3485   11.5256 C.ar    1  UNL1        0.0003
      2 C          63.3827   89.0901   12.3407 C.ar    1  UNL1        0.0031
      3 C          62.6405   87.8710   11.8796 C.ar    1  UNL1        0.0372
      4 C          61.8534   87.9102   10.6033 C.ar    1  UNL1        0.1468
      5 C          61.8086   89.1685    9.7881 C.ar    1  UNL1        0.0372
      6 C          62.5509   90.3876   10.2493 C.ar    1  UNL1        0.0031
      7 C          65.0167   92.2739   11.0517 C.2     1  UNL1        0.0435
      8 C          64.0802   91.5677   11.9867 C.2     1  UNL1        0.0033
      9 O          66.2206   93.5964   12.9363 O.2     1  UNL1       -0.2850
     10 C          65.7590   93.4931   11.5129 C.2     1  UNL1        0.2111
     11 C          66.0396   94.6090   10.5506 C.ar    1  UNL1        0.0961
     12 C          67.2970   94.7900    9.7529 C.ar    1  UNL1        0.0218
     13 C          67.1466   96.0326    8.9263 C.ar    1  UNL1        0.0200
     14 C          65.7964   96.6196    9.2131 C.ar    1  UNL1        0.0725
     15 N          65.1122   95.7398   10.2170 N.ar    1  UNL1       -0.3495
     16 H          64.2125   95.8798   10.5912 H       1  UNL1        0.1661
     17 O          61.1111   86.6910   10.1422 O.3     1  UNL1       -0.4045
     18 C          61.2165   86.2441    8.7142 C.3     1  UNL1        0.5753
     19 F          61.3219   85.7973    7.2861 F       1  UNL1       -0.1328
     20 F          62.7127   86.2837    8.8122 F       1  UNL1       -0.1328
     21 F          59.7203   86.2046    8.6161 F       1  UNL1       -0.1328
@<TRIPOS>BOND
     1     9    10    2
     2    10     7    1
     3     7     8    2
     4     8     1    1
     5     1     2   ar
     6     2     3   ar
     7     3     4   ar
     8     4    17    1
     9    17    18    1
    10    18    19    1
    11    18    20    1
    12    18    21    1
    13     4     5   ar
    14     5     6   ar
    15    10    11    1
    16    11    12   ar
    17    12    13   ar
    18    13    14   ar
    19    14    15   ar
    20     6     1   ar
    21    15    11   ar
    22    15    16    1
@<TRIPOS>MOLECULE
*****
 21 22 0 0 0
SMALL
GASTEIGER

@<TRIPOS>ATOM
      1 C          63.1045   90.4317   11.0509 C.ar    1  UNL1        0.0003
      2 C          63.2671   90.0484   12.4919 C.ar    1  UNL1        0.0031
      3 C          64.2028   90.8221   13.3727 C.ar    1  UNL1        0.0372
      4 C          64.9759   91.9791   12.8125 C.ar    1  UNL1        0.1468
      5 C          64.8132   92.3623   11.3715 C.ar    1  UNL1        0.0372
      6 C          63.8775   91.5886   10.4907 C.ar    1  UNL1        0.0031
      7 C          61.8095   88.2436   10.5168 C.2     1  UNL1        0.0435
      8 C          62.1688   89.6580   10.1700 C.2     1  UNL1        0.0033
      9 O          59.3969   87.7223    9.7059 O.2     1  UNL1       -0.2850
     10 C          60.8738   87.4698    9.6359 C.2     1  UNL1        0.2111
     11 C          61.4150   86.4437    8.6851 C.ar    1  UNL1        0.0961
     12 C          62.7729   85.8098    8.7513 C.ar    1  UNL1        0.0218
     13 C          62.8905   84.8456    7.6083 C.ar    1  UNL1        0.0200
     14 C          61.6053   84.8836    6.8356 C.ar    1  UNL1        0.0725
     15 N          60.6935   85.8713    7.5012 N.ar    1  UNL1       -0.3495
     16 H          59.7815   86.1032    7.2117 H       1  UNL1        0.1661
     17 O          65.9116   92.7528   13.6934 O.3     1  UNL1       -0.4045
     18 C          66.8766   92.0268   14.5831 C.3     1  UNL1        0.5753
     19 F          67.8416   91.3008   15.4730 F       1  UNL1       -0.1328
     20 F          66.1018   92.4730   15.7875 F       1  UNL1       -0.1328
     21 F          67.6514   91.5806   13.3788 F       1  UNL1       -0.1328
@<TRIPOS>BOND
     1     9    10    2
     2    10     7    1
     3     7     8    2
     4     8     1    1
     5     1     2   ar
     6     2     3   ar
     7     3     4   ar
     8     4    17    1
     9    17    18    1
    10    18    19    1
    11    18    20    1
    12    18    21    1
    13     4     5   ar
    14     5     6   ar
    15    10    11    1
    16    11    12   ar
    17    12    13   ar
    18    13    14   ar
    19    14    15   ar
    20     6     1   ar
    21    15    11   ar
    22    15    16    1
@<TRIPOS>MOLECULE
*****
 21 22 0 0 0
SMALL
GASTEIGER

@<TRIPOS>ATOM
      1 C          64.3399   89.5224   14.1163 C.ar    1  UNL1        0.0003
      2 C          63.5380   89.8101   12.8819 C.ar    1  UNL1        0.0031
      3 C          63.8241   91.0392   12.0712 C.ar    1  UNL1        0.0372
      4 C          64.9123   91.9807   12.4949 C.ar    1  UNL1        0.1468
      5 C          65.7143   91.6930   13.7294 C.ar    1  UNL1        0.0372
      6 C          65.4281   90.4639   14.5401 C.ar    1  UNL1        0.0031
      7 C          64.3211   86.9349   14.3498 C.2     1  UNL1        0.0435
      8 C          64.0538   88.2932   14.9271 C.2     1  UNL1        0.0033
      9 O          63.8304   85.8156   16.6425 O.2     1  UNL1       -0.2850
     10 C          64.0350   85.7057   15.1605 C.2     1  UNL1        0.2111
     11 C          63.9534   84.3668   14.4894 C.ar    1  UNL1        0.0961
     12 C          64.2924   84.0762   13.0574 C.ar    1  UNL1        0.0218
     13 C          64.0670   82.6131   12.8154 C.ar    1  UNL1        0.0200
     14 C          63.5886   81.9994   14.0978 C.ar    1  UNL1        0.0725
     15 N          63.5184   83.0832   15.1324 N.ar    1  UNL1       -0.3495
     16 H          63.2363   82.9718   16.0690 H       1  UNL1        0.1661
     17 O          65.1985   93.2099   11.6842 O.3     1  UNL1       -0.4045
     18 C          66.5019   93.3397   10.9534 C.3     1  UNL1        0.5753
     19 F          67.8055   93.4695   10.2226 F       1  UNL1       -0.1328
     20 F          66.7014   94.7009   11.5510 F       1  UNL1       -0.1328
     21 F          66.3024   91.9784   10.3558 F       1  UNL1       -0.1328
@<TRIPOS>BOND
     1     9    10    2
     2    10     7    1
     3     7     8    2
     4     8     1    1
     5     1     2   ar
     6     2     3   ar
     7     3     4   ar
     8     4    17    1
     9    17    18    1
    10    18    19    1
    11    18    20    1
    12    18    21    1
    13     4     5   ar
    14     5     6   ar
    15    10    11    1
    16    11    12   ar
    17    12    13   ar
    18    13    14   ar
    19    14    15   ar
    20     6     1   ar
    21    15    11   ar
    22    15    16    1
