@<TRIPOS>MOLECULE
*****
 45 48 0 0 0
SMALL
GASTEIGER

@<TRIPOS>ATOM
      1 N          61.6225   86.2839    9.5147 N.pl3   1  UNL1       -0.3043
      2 C          61.2469   85.9561   10.9294 C.3     1  UNL1        0.1123
      3 C          62.0830   84.9976   11.7245 C.3     1  UNL1        0.1149
      4 N          63.2947   84.3668   11.1049 N.am    1  UNL1       -0.2747
      5 C          64.1308   83.4084   11.9000 C.2     1  UNL1        0.2442
      6 O          65.3425   82.7776   11.2804 O.2     1  UNL1       -0.2731
      7 C          63.6703   84.6946    9.6902 C.3     1  UNL1        0.1149
      8 C          62.8342   85.6531    8.8950 C.3     1  UNL1        0.1123
      9 C          60.5233   88.6225    9.2450 C.ar    1  UNL1        0.0111
     10 C          59.6872   89.5809    8.4499 C.ar    1  UNL1        0.0282
     11 C          59.1142   89.1593    7.1293 C.ar    1  UNL1        0.1400
     12 F          58.2780   90.1179    6.3342 F       1  UNL1       -0.2042
     13 C          59.3773   87.7792    6.6039 C.ar    1  UNL1        0.0309
     14 C          60.2134   86.8208    7.3990 C.ar    1  UNL1        0.0166
     15 C          60.7864   87.2424    8.7196 C.ar    1  UNL1        0.0456
     16 C          61.0963   89.0441   10.5656 C.3     1  UNL1        0.0953
     17 N          62.3663   89.8409   10.6120 N.am    1  UNL1       -0.3011
     18 C          62.9042   90.3186   11.9282 C.2     1  UNL1        0.2367
     19 O          62.1722   89.9995   13.1980 O.2     1  UNL1       -0.2737
     20 H          62.8468   90.0503    9.7787 H       1  UNL1        0.1497
     21 C          64.1743   91.1154   11.9747 C.3     1  UNL1        0.1284
     22 C          65.0023   91.1346   13.2252 C.3     1  UNL1        0.0267
     23 N          64.6162   91.8931   10.7706 N.3     1  UNL1       -0.3150
     24 H          63.9398   91.7673   10.0175 H       1  UNL1        0.1192
     25 H          65.5302   91.5579   10.4660 H       1  UNL1        0.1192
     26 C          60.3993   88.6689   11.8397 C.3     1  UNL1        0.0242
     27 C          58.1709   88.7413   13.1735 C.3     1  UNL1        0.0001
     28 C          59.1609   89.4029   12.2614 C.3     1  UNL1        0.0020
     29 C          58.9127   90.7986   11.7709 C.3     1  UNL1        0.0001
     30 C          63.7552   83.0806   13.3148 C.3     1  UNL1        0.1564
     31 N          62.6164   82.1442   13.5907 N.am    1  UNL1       -0.2727
     32 C          61.5501   82.3344   14.6285 C.3     1  UNL1        0.0943
     33 C          60.6186   81.1610   14.5565 C.3     1  UNL1        0.0311
     34 C          61.1091   80.2455   13.4741 C.3     1  UNL1        0.0870
     35 C          62.3438   80.8532   12.8773 C.2     1  UNL1        0.2260
     36 O          63.1622   80.2719   11.7627 O.2     1  UNL1       -0.2749
     37 C          64.5184   83.6893   14.4536 C.3     1  UNL1        0.0564
     38 C          64.1738   85.0672   14.9360 C.ar    1  UNL1       -0.0094
     39 C          64.7139   86.2694   14.2198 C.ar    1  UNL1       -0.0025
     40 C          64.3693   87.6473   14.7022 C.ar    1  UNL1        0.0111
     41 C          63.4846   87.8229   15.9008 C.ar    1  UNL1        0.0585
     42 CL         63.1400   89.2008   16.3832 Cl      1  UNL1       -0.0822
     43 C          62.9446   86.6206   16.6170 C.ar    1  UNL1        0.0225
     44 C          63.2892   85.2428   16.1346 C.ar    1  UNL1        0.0546
     45 CL         62.9195   84.7381   16.6287 Cl      1  UNL1       -0.0825
@<TRIPOS>BOND
     1    27    28    1
     2    28    29    1
     3    28    26    1
     4    16    26    1
     5    16    17    1
     6    17    18   am
     7    18    19    2
     8    18    21    1
     9    21    22    1
    10    21    23    1
    11    16     9    1
    12     9    10   ar
    13    10    11   ar
    14    11    12    1
    15    11    13   ar
    16    13    14   ar
    17    14    15   ar
    18    15     1    1
    19     1     2    1
    20     2     3    1
    21     3     4    1
    22     4     5   am
    23     5     6    2
    24     5    30    1
    25    30    37    1
    26    37    38    1
    27    38    39   ar
    28    39    40   ar
    29    40    41   ar
    30    41    42    1
    31    41    43   ar
    32    43    44   ar
    33    44    45    1
    34    30    31    1
    35    31    32    1
    36    32    33    1
    37    33    34    1
    38    34    35    1
    39    35    36    2
    40     4     7    1
    41     7     8    1
    42    15     9   ar
    43     8     1    1
    44    44    38   ar
    45    35    31   am
    46    17    20    1
    47    23    24    1
    48    23    25    1
@<TRIPOS>MOLECULE
*****
 45 48 0 0 0
SMALL
GASTEIGER

@<TRIPOS>ATOM
      1 N          61.6509   86.0557    9.2866 N.pl3   1  UNL1       -0.3043
      2 C          61.3603   85.7546   10.7271 C.3     1  UNL1        0.1123
      3 C          62.1739   84.7279   11.4577 C.3     1  UNL1        0.1149
      4 N          63.2782   84.0022   10.7478 N.am    1  UNL1       -0.2747
      5 C          64.0919   82.9755   11.4784 C.2     1  UNL1        0.2442
      6 O          65.1961   82.2498   10.7685 O.2     1  UNL1       -0.2731
      7 C          63.5689   84.3032    9.3074 C.3     1  UNL1        0.1149
      8 C          62.7551   85.3300    8.5768 C.3     1  UNL1        0.1123
      9 C          60.5873   88.4237    9.1794 C.ar    1  UNL1        0.0111
     10 C          59.7737   89.4504    8.4488 C.ar    1  UNL1        0.0282
     11 C          59.2098   89.1358    7.0949 C.ar    1  UNL1        0.1400
     12 F          58.3961   90.1626    6.3643 F       1  UNL1       -0.2042
     13 C          59.4596   87.7946    6.4715 C.ar    1  UNL1        0.0309
     14 C          60.2733   86.7679    7.2021 C.ar    1  UNL1        0.0166
     15 C          60.8372   87.0825    8.5561 C.ar    1  UNL1        0.0456
     16 C          61.1512   88.7382   10.5333 C.3     1  UNL1        0.0953
     17 N          60.3817   88.3760   11.7689 N.am    1  UNL1       -0.3011
     18 C          59.3053   89.2890   12.2767 C.2     1  UNL1        0.2367
     19 O          58.9984   90.5642   11.5490 O.2     1  UNL1       -0.2737
     20 H          60.5831   87.5390   12.2465 H       1  UNL1        0.1497
     21 C          58.5358   88.9267   13.5123 C.3     1  UNL1        0.1284
     22 C          59.1913   89.0195   14.8583 C.3     1  UNL1        0.0267
     23 N          57.1108   88.4715   13.4019 N.3     1  UNL1       -0.3150
     24 H          56.8300   88.4681   12.4213 H       1  UNL1        0.1192
     25 H          56.5093   89.1074   13.9256 H       1  UNL1        0.1192
     26 C          62.4845   89.4150   10.6517 C.3     1  UNL1        0.0242
     27 C          63.4470   90.9184   12.5396 C.3     1  UNL1        0.0001
     28 C          63.1378   89.5555   11.9948 C.3     1  UNL1        0.0020
     29 C          63.4818   88.3329   12.7929 C.3     1  UNL1        0.0001
     30 C          63.8013   82.6744   12.9188 C.3     1  UNL1        0.1564
     31 N          62.6478   81.7869   13.2816 N.am    1  UNL1       -0.2727
     32 C          61.6112   82.0716   14.3279 C.3     1  UNL1        0.0943
     33 C          60.6511   80.9194   14.3548 C.3     1  UNL1        0.0311
     34 C          61.0943   79.9227   13.3251 C.3     1  UNL1        0.0870
     35 C          62.3283   80.4588   12.6619 C.2     1  UNL1        0.2260
     36 O          63.1061   79.7851   11.5706 O.2     1  UNL1       -0.2749
     37 C          64.6641   83.2609   13.9965 C.3     1  UNL1        0.0564
     38 C          64.1315   84.3581   14.8697 C.ar    1  UNL1       -0.0094
     39 C          62.8746   84.1444   15.6600 C.ar    1  UNL1       -0.0025
     40 C          62.3420   85.2416   16.5332 C.ar    1  UNL1        0.0111
     41 C          63.0664   86.5525   16.6162 C.ar    1  UNL1        0.0585
     42 CL         62.5338   87.6497   17.4894 Cl      1  UNL1       -0.0822
     43 C          64.3233   86.7662   15.8259 C.ar    1  UNL1        0.0225
     44 C          64.8558   85.6690   14.9527 C.ar    1  UNL1        0.0546
     45 CL         65.5182   85.9580   14.6162 Cl      1  UNL1       -0.0825
@<TRIPOS>BOND
     1    27    28    1
     2    28    29    1
     3    28    26    1
     4    16    26    1
     5    16    17    1
     6    17    18   am
     7    18    19    2
     8    18    21    1
     9    21    22    1
    10    21    23    1
    11    16     9    1
    12     9    10   ar
    13    10    11   ar
    14    11    12    1
    15    11    13   ar
    16    13    14   ar
    17    14    15   ar
    18    15     1    1
    19     1     2    1
    20     2     3    1
    21     3     4    1
    22     4     5   am
    23     5     6    2
    24     5    30    1
    25    30    37    1
    26    37    38    1
    27    38    39   ar
    28    39    40   ar
    29    40    41   ar
    30    41    42    1
    31    41    43   ar
    32    43    44   ar
    33    44    45    1
    34    30    31    1
    35    31    32    1
    36    32    33    1
    37    33    34    1
    38    34    35    1
    39    35    36    2
    40     4     7    1
    41     7     8    1
    42    15     9   ar
    43     8     1    1
    44    44    38   ar
    45    35    31   am
    46    17    20    1
    47    23    24    1
    48    23    25    1
@<TRIPOS>MOLECULE
*****
 45 48 0 0 0
SMALL
GASTEIGER

@<TRIPOS>ATOM
      1 N          61.9839   89.3267   10.8836 N.pl3   1  UNL1       -0.3043
      2 C          63.3607   89.7195   10.4363 C.3     1  UNL1        0.1123
      3 C          64.2669   90.4682   11.3680 C.3     1  UNL1        0.1149
      4 N          63.7963   90.8242   12.7471 N.am    1  UNL1       -0.2747
      5 C          64.7025   91.5729   13.6789 C.2     1  UNL1        0.2442
      6 O          64.2318   91.9289   15.0579 O.2     1  UNL1       -0.2731
      7 C          62.4195   90.4314   13.1944 C.3     1  UNL1        0.1149
      8 C          61.5133   89.6826   12.2626 C.3     1  UNL1        0.1123
      9 C          61.0930   87.0781    9.9347 C.ar    1  UNL1        0.0111
     10 C          60.1869   86.3294    9.0029 C.ar    1  UNL1        0.0282
     11 C          59.2654   87.0805    8.0882 C.ar    1  UNL1        0.1400
     12 F          58.3592   86.3317    7.1564 F       1  UNL1       -0.2042
     13 C          59.2501   88.5803    8.1053 C.ar    1  UNL1        0.0309
     14 C          60.1562   89.3290    9.0371 C.ar    1  UNL1        0.0166
     15 C          61.0777   88.5779    9.9518 C.ar    1  UNL1        0.0456
     16 C          62.0145   86.3270   10.8494 C.3     1  UNL1        0.0953
     17 N          62.7087   87.0443   11.9690 N.am    1  UNL1       -0.3011
     18 C          63.3479   86.2627   13.0783 C.2     1  UNL1        0.2367
     19 O          63.2929   84.7638   13.0680 O.2     1  UNL1       -0.2737
     20 H          62.7447   88.0282   11.9758 H       1  UNL1        0.1497
     21 C          64.0420   86.9801   14.1980 C.3     1  UNL1        0.1284
     22 C          65.1401   86.2981   14.9590 C.3     1  UNL1        0.0267
     23 N          63.6381   88.3795   14.5566 N.3     1  UNL1       -0.3150
     24 H          62.8832   88.6836   13.9418 H       1  UNL1        0.1192
     25 H          64.4380   89.0029   14.4469 H       1  UNL1        0.1192
     26 C          62.2418   84.8586   10.6446 C.3     1  UNL1        0.0242
     27 C          64.2189   83.2963   10.0118 C.3     1  UNL1        0.0001
     28 C          63.2586   84.3891    9.6466 C.3     1  UNL1        0.0020
     29 C          63.3149   85.0125    8.2834 C.3     1  UNL1        0.0001
     30 C          66.0793   91.9657   13.2316 C.3     1  UNL1        0.1564
     31 N          67.0823   92.4553   14.2337 N.am    1  UNL1       -0.2727
     32 C          66.7697   93.1217   15.5407 C.3     1  UNL1        0.0943
     33 C          68.0682   93.4427   16.2196 C.3     1  UNL1        0.0311
     34 C          69.1833   92.9748   15.3320 C.3     1  UNL1        0.0870
     35 C          68.5740   92.3646   14.1047 C.2     1  UNL1        0.2260
     36 O          69.3245   91.7682   12.9511 O.2     1  UNL1       -0.2749
     37 C          66.4531   91.8689   11.7822 C.3     1  UNL1        0.0564
     38 C          66.7141   93.1157   10.9900 C.ar    1  UNL1       -0.0094
     39 C          65.9841   94.3829   11.3239 C.ar    1  UNL1       -0.0025
     40 C          66.2451   95.6297   10.5317 C.ar    1  UNL1        0.0111
     41 C          67.2359   95.6092    9.4057 C.ar    1  UNL1        0.0585
     42 CL         67.4969   96.8560    8.6136 Cl      1  UNL1       -0.0822
     43 C          67.9658   94.3420    9.0719 C.ar    1  UNL1        0.0225
     44 C          67.7049   93.0953    9.8641 C.ar    1  UNL1        0.0546
     45 CL         68.1742   92.5329    9.5495 Cl      1  UNL1       -0.0825
@<TRIPOS>BOND
     1    27    28    1
     2    28    29    1
     3    28    26    1
     4    16    26    1
     5    16    17    1
     6    17    18   am
     7    18    19    2
     8    18    21    1
     9    21    22    1
    10    21    23    1
    11    16     9    1
    12     9    10   ar
    13    10    11   ar
    14    11    12    1
    15    11    13   ar
    16    13    14   ar
    17    14    15   ar
    18    15     1    1
    19     1     2    1
    20     2     3    1
    21     3     4    1
    22     4     5   am
    23     5     6    2
    24     5    30    1
    25    30    37    1
    26    37    38    1
    27    38    39   ar
    28    39    40   ar
    29    40    41   ar
    30    41    42    1
    31    41    43   ar
    32    43    44   ar
    33    44    45    1
    34    30    31    1
    35    31    32    1
    36    32    33    1
    37    33    34    1
    38    34    35    1
    39    35    36    2
    40     4     7    1
    41     7     8    1
    42    15     9   ar
    43     8     1    1
    44    44    38   ar
    45    35    31   am
    46    17    20    1
    47    23    24    1
    48    23    25    1
@<TRIPOS>MOLECULE
*****
 45 48 0 0 0
SMALL
GASTEIGER

@<TRIPOS>ATOM
      1 N          62.6452   88.2442   10.1124 N.pl3   1  UNL1       -0.3043
      2 C          62.9158   87.9127   11.5500 C.3     1  UNL1        0.1123
      3 C          63.4187   88.9744   12.4826 C.3     1  UNL1        0.1149
      4 N          63.6511   90.3676   11.9776 N.am    1  UNL1       -0.2747
      5 C          64.1541   91.4293   12.9102 C.2     1  UNL1        0.2442
      6 O          64.3865   92.8224   12.4051 O.2     1  UNL1       -0.2731
      7 C          63.3805   90.6991   10.5399 C.3     1  UNL1        0.1149
      8 C          62.8775   89.6373    9.6073 C.3     1  UNL1        0.1123
      9 C          60.7852   87.3148    8.5546 C.ar    1  UNL1        0.0111
     10 C          60.2822   86.2531    7.6220 C.ar    1  UNL1        0.0282
     11 C          61.1363   85.0589    7.3146 C.ar    1  UNL1        0.1400
     12 F          60.6333   83.9971    6.3820 F       1  UNL1       -0.2042
     13 C          62.4933   84.9265    7.9398 C.ar    1  UNL1        0.0309
     14 C          62.9963   85.9882    8.8724 C.ar    1  UNL1        0.0166
     15 C          62.1422   87.1824    9.1797 C.ar    1  UNL1        0.0456
     16 C          59.9311   88.5090    8.8619 C.3     1  UNL1        0.0953
     17 N          59.9020   89.6735    7.9170 N.am    1  UNL1       -0.3011
     18 C          59.1307   89.5793    6.6340 C.2     1  UNL1        0.2367
     19 O          58.3883   88.3205    6.2959 O.2     1  UNL1       -0.2737
     20 H          60.3892   90.4997    8.1389 H       1  UNL1        0.1497
     21 C          59.1017   90.7439    5.6890 C.3     1  UNL1        0.1284
     22 C          57.7884   91.2999    5.2240 C.3     1  UNL1        0.0267
     23 N          60.3859   91.3525    5.2091 N.3     1  UNL1       -0.3150
     24 H          61.1738   90.8535    5.6222 H       1  UNL1        0.1192
     25 H          60.4216   92.3335    5.4861 H       1  UNL1        0.1192
     26 C          59.1060   88.5386   10.1142 C.3     1  UNL1        0.0242
     27 C          59.4476   88.9399   12.6583 C.3     1  UNL1        0.0001
     28 C          59.4931   89.4436   11.2462 C.3     1  UNL1        0.0020
     29 C          59.9257   90.8522   10.9660 C.3     1  UNL1        0.0001
     30 C          64.4247   91.0979   14.3479 C.3     1  UNL1        0.1564
     31 N          65.7087   91.5338   14.9892 N.am    1  UNL1       -0.2727
     32 C          67.0898   91.2638   14.4699 C.3     1  UNL1        0.0943
     33 C          68.0717   91.8794   15.4222 C.3     1  UNL1        0.0311
     34 C          67.2974   92.5298   16.5301 C.3     1  UNL1        0.0870
     35 C          65.8370   92.3162   16.2625 C.2     1  UNL1        0.2260
     36 O          64.7039   92.8001   17.1180 O.2     1  UNL1       -0.2749
     37 C          63.4113   90.3305   15.1442 C.3     1  UNL1        0.0564
     38 C          63.6284   88.8739   15.4295 C.ar    1  UNL1       -0.0094
     39 C          64.4991   88.0540   14.5242 C.ar    1  UNL1       -0.0025
     40 C          64.7161   86.5974   14.8095 C.ar    1  UNL1        0.0111
     41 C          64.0624   85.9609   16.0002 C.ar    1  UNL1        0.0585
     42 CL         64.2794   84.5043   16.2855 Cl      1  UNL1       -0.0822
     43 C          63.1917   86.7808   16.9054 C.ar    1  UNL1        0.0225
     44 C          62.9747   88.2374   16.6201 C.ar    1  UNL1        0.0546
     45 CL         62.4933   88.5048   17.1964 Cl      1  UNL1       -0.0825
@<TRIPOS>BOND
     1    27    28    1
     2    28    29    1
     3    28    26    1
     4    16    26    1
     5    16    17    1
     6    17    18   am
     7    18    19    2
     8    18    21    1
     9    21    22    1
    10    21    23    1
    11    16     9    1
    12     9    10   ar
    13    10    11   ar
    14    11    12    1
    15    11    13   ar
    16    13    14   ar
    17    14    15   ar
    18    15     1    1
    19     1     2    1
    20     2     3    1
    21     3     4    1
    22     4     5   am
    23     5     6    2
    24     5    30    1
    25    30    37    1
    26    37    38    1
    27    38    39   ar
    28    39    40   ar
    29    40    41   ar
    30    41    42    1
    31    41    43   ar
    32    43    44   ar
    33    44    45    1
    34    30    31    1
    35    31    32    1
    36    32    33    1
    37    33    34    1
    38    34    35    1
    39    35    36    2
    40     4     7    1
    41     7     8    1
    42    15     9   ar
    43     8     1    1
    44    44    38   ar
    45    35    31   am
    46    17    20    1
    47    23    24    1
    48    23    25    1
@<TRIPOS>MOLECULE
*****
 45 48 0 0 0
SMALL
GASTEIGER

@<TRIPOS>ATOM
      1 N          62.2913   88.8606   11.1494 N.pl3   1  UNL1       -0.3043
      2 C          62.9601   90.1672   10.8404 C.3     1  UNL1        0.1123
      3 C          63.9247   90.7663   11.8206 C.3     1  UNL1        0.1149
      4 N          64.2204   90.0587   13.1098 N.am    1  UNL1       -0.2747
      5 C          65.1849   90.6578   14.0900 C.2     1  UNL1        0.2442
      6 O          65.4806   89.9502   15.3791 O.2     1  UNL1       -0.2731
      7 C          63.5516   88.7521   13.4188 C.3     1  UNL1        0.1149
      8 C          62.5870   88.1531   12.4385 C.3     1  UNL1        0.1123
      9 C          61.2760   86.7744    9.9802 C.ar    1  UNL1        0.0111
     10 C          60.3114   86.1754    9.0000 C.ar    1  UNL1        0.0282
     11 C          59.3976   87.0636    8.2087 C.ar    1  UNL1        0.1400
     12 F          58.4331   86.4646    7.2285 F       1  UNL1       -0.2042
     13 C          59.4484   88.5508    8.3977 C.ar    1  UNL1        0.0309
     14 C          60.4129   89.1498    9.3779 C.ar    1  UNL1        0.0166
     15 C          61.3267   88.2616   10.1691 C.ar    1  UNL1        0.0456
     16 C          62.1898   85.8862   10.7715 C.3     1  UNL1        0.0953
     17 N          61.7899   85.4305   12.1434 N.am    1  UNL1       -0.3011
     18 C          62.7466   84.6298   12.9763 C.2     1  UNL1        0.2367
     19 O          64.1032   84.2848   12.4371 O.2     1  UNL1       -0.2737
     20 H          60.8996   85.6569   12.4973 H       1  UNL1        0.1497
     21 C          62.3467   84.1741   14.3483 C.3     1  UNL1        0.1284
     22 C          62.1293   82.7151   14.6203 C.3     1  UNL1        0.0267
     23 N          62.1643   85.1774   15.4484 N.3     1  UNL1       -0.3150
     24 H          62.3515   86.1135   15.0892 H       1  UNL1        0.1192
     25 H          62.8113   84.9694   16.2090 H       1  UNL1        0.1192
     26 C          63.5034   85.4538   10.1907 C.3     1  UNL1        0.0242
     27 C          64.0112   82.9732    9.6083 C.3     1  UNL1        0.0001
     28 C          63.5498   84.3377    9.1896 C.3     1  UNL1        0.0020
     29 C          63.1348   84.5861    7.7697 C.3     1  UNL1        0.0001
     30 C          65.8538   91.9644   13.7810 C.3     1  UNL1        0.1564
     31 N          67.1291   92.3372   14.4770 N.am    1  UNL1       -0.2727
     32 C          68.5033   92.3050   13.8765 C.3     1  UNL1        0.0943
     33 C          69.4777   92.7555   14.9241 C.3     1  UNL1        0.0311
     34 C          68.7057   93.0661   16.1722 C.3     1  UNL1        0.0870
     35 C          67.2542   92.8076   15.8958 C.2     1  UNL1        0.2260
     36 O          66.1259   92.9878   16.8677 O.2     1  UNL1       -0.2749
     37 C          65.2473   92.8982   12.7760 C.3     1  UNL1        0.0564
     38 C          66.0269   93.2994   11.5589 C.ar    1  UNL1       -0.0094
     39 C          66.8078   92.2709   10.7958 C.ar    1  UNL1       -0.0025
     40 C          67.5874   92.6721    9.5787 C.ar    1  UNL1        0.0111
     41 C          67.5860   94.1018    9.1247 C.ar    1  UNL1        0.0585
     42 CL         68.3656   94.5030    7.9076 Cl      1  UNL1       -0.0822
     43 C          66.8051   95.1302    9.8878 C.ar    1  UNL1        0.0225
     44 C          66.0255   94.7290   11.1049 C.ar    1  UNL1        0.0546
     45 CL         65.6805   95.3953   11.3744 Cl      1  UNL1       -0.0825
@<TRIPOS>BOND
     1    27    28    1
     2    28    29    1
     3    28    26    1
     4    16    26    1
     5    16    17    1
     6    17    18   am
     7    18    19    2
     8    18    21    1
     9    21    22    1
    10    21    23    1
    11    16     9    1
    12     9    10   ar
    13    10    11   ar
    14    11    12    1
    15    11    13   ar
    16    13    14   ar
    17    14    15   ar
    18    15     1    1
    19     1     2    1
    20     2     3    1
    21     3     4    1
    22     4     5   am
    23     5     6    2
    24     5    30    1
    25    30    37    1
    26    37    38    1
    27    38    39   ar
    28    39    40   ar
    29    40    41   ar
    30    41    42    1
    31    41    43   ar
    32    43    44   ar
    33    44    45    1
    34    30    31    1
    35    31    32    1
    36    32    33    1
    37    33    34    1
    38    34    35    1
    39    35    36    2
    40     4     7    1
    41     7     8    1
    42    15     9   ar
    43     8     1    1
    44    44    38   ar
    45    35    31   am
    46    17    20    1
    47    23    24    1
    48    23    25    1
@<TRIPOS>MOLECULE
*****
 45 48 0 0 0
SMALL
GASTEIGER

@<TRIPOS>ATOM
      1 N          64.2446   91.0293   12.7062 N.pl3   1  UNL1       -0.3043
      2 C          64.2757   89.5316   12.7845 C.3     1  UNL1        0.1123
      3 C          63.3506   88.7166   11.9301 C.3     1  UNL1        0.1149
      4 N          62.3944   89.3992   10.9974 N.am    1  UNL1       -0.2747
      5 C          61.4694   88.5842   10.1431 C.2     1  UNL1        0.2442
      6 O          60.5133   89.2668    9.2104 O.2     1  UNL1       -0.2731
      7 C          62.3634   90.8969   10.9191 C.3     1  UNL1        0.1149
      8 C          63.2885   91.7119   11.7736 C.3     1  UNL1        0.1123
      9 C          65.9915   92.9376   12.9447 C.ar    1  UNL1        0.0111
     10 C          66.9166   93.7525   13.7991 C.ar    1  UNL1        0.0282
     11 C          67.0199   93.4742   15.2694 C.ar    1  UNL1        0.1400
     12 F          67.9450   94.2892   16.1239 F       1  UNL1       -0.2042
     13 C          66.1982   92.3809   15.8853 C.ar    1  UNL1        0.0309
     14 C          65.2731   91.5659   15.0309 C.ar    1  UNL1        0.0166
     15 C          65.1698   91.8443   13.5606 C.ar    1  UNL1        0.0456
     16 C          65.8882   93.2159   11.4744 C.3     1  UNL1        0.0953
     17 N          66.5652   92.3090   10.4900 N.am    1  UNL1       -0.3011
     18 C          67.8245   92.7516    9.8055 C.2     1  UNL1        0.2367
     19 O          68.4066   94.1010   10.1054 O.2     1  UNL1       -0.2737
     20 H          66.1831   91.4233   10.2931 H       1  UNL1        0.1497
     21 C          68.5015   91.8446    8.8211 C.3     1  UNL1        0.1284
     22 C          69.8112   92.2456    8.2096 C.3     1  UNL1        0.0267
     23 N          67.8688   90.5367    8.4481 N.3     1  UNL1       -0.3150
     24 H          66.9901   90.4275    8.9543 H       1  UNL1        0.1192
     25 H          68.4989   89.7725    8.6920 H       1  UNL1        0.1192
     26 C          65.1078   94.4012   10.9885 C.3     1  UNL1        0.0242
     27 C          66.2184   96.5907   11.8385 C.3     1  UNL1        0.0001
     28 C          65.8096   95.6965   10.7058 C.3     1  UNL1        0.0020
     29 C          66.1024   96.0975    9.2904 C.3     1  UNL1        0.0001
     30 C          61.5004   87.0866   10.2213 C.3     1  UNL1        0.1564
     31 N          61.6546   86.2732    8.9705 N.am    1  UNL1       -0.2727
     32 C          62.9142   85.6072    8.5015 C.3     1  UNL1        0.0943
     33 C          62.6143   84.9054    7.2102 C.3     1  UNL1        0.0311
     34 C          61.1693   85.1377    6.8811 C.3     1  UNL1        0.0870
     35 C          60.5762   85.9830    7.9691 C.2     1  UNL1        0.2260
     36 O          59.1544   86.4552    8.0426 O.2     1  UNL1       -0.2749
     37 C          61.3773   86.4023   11.5504 C.3     1  UNL1        0.0564
     38 C          62.2392   85.2159   11.8659 C.ar    1  UNL1       -0.0094
     39 C          62.0572   83.9340   11.1083 C.ar    1  UNL1       -0.0025
     40 C          62.9191   82.7476   11.4237 C.ar    1  UNL1        0.0111
     41 C          63.9629   82.8430   12.4968 C.ar    1  UNL1        0.0585
     42 CL         64.8248   81.6565   12.8122 Cl      1  UNL1       -0.0822
     43 C          64.1448   84.1247   13.2543 C.ar    1  UNL1        0.0225
     44 C          63.2830   85.3112   12.9389 C.ar    1  UNL1        0.0546
     45 CL         63.5183   85.8911   13.4326 Cl      1  UNL1       -0.0825
@<TRIPOS>BOND
     1    27    28    1
     2    28    29    1
     3    28    26    1
     4    16    26    1
     5    16    17    1
     6    17    18   am
     7    18    19    2
     8    18    21    1
     9    21    22    1
    10    21    23    1
    11    16     9    1
    12     9    10   ar
    13    10    11   ar
    14    11    12    1
    15    11    13   ar
    16    13    14   ar
    17    14    15   ar
    18    15     1    1
    19     1     2    1
    20     2     3    1
    21     3     4    1
    22     4     5   am
    23     5     6    2
    24     5    30    1
    25    30    37    1
    26    37    38    1
    27    38    39   ar
    28    39    40   ar
    29    40    41   ar
    30    41    42    1
    31    41    43   ar
    32    43    44   ar
    33    44    45    1
    34    30    31    1
    35    31    32    1
    36    32    33    1
    37    33    34    1
    38    34    35    1
    39    35    36    2
    40     4     7    1
    41     7     8    1
    42    15     9   ar
    43     8     1    1
    44    44    38   ar
    45    35    31   am
    46    17    20    1
    47    23    24    1
    48    23    25    1
@<TRIPOS>MOLECULE
*****
 45 48 0 0 0
SMALL
GASTEIGER

@<TRIPOS>ATOM
      1 N          61.4820   86.6987    9.7522 N.pl3   1  UNL1       -0.3043
      2 C          60.8702   86.3320   11.0718 C.3     1  UNL1        0.1123
      3 C          61.6196   85.4512   12.0270 C.3     1  UNL1        0.1149
      4 N          62.9809   84.9370   11.6627 N.am    1  UNL1       -0.2747
      5 C          63.7303   84.0562   12.6179 C.2     1  UNL1        0.2442
      6 O          65.0914   83.5420   12.2535 O.2     1  UNL1       -0.2731
      7 C          63.5926   85.3037   10.3431 C.3     1  UNL1        0.1149
      8 C          62.8431   86.1846    9.3879 C.3     1  UNL1        0.1123
      9 C          60.5987   89.0470    9.0775 C.ar    1  UNL1        0.0111
     10 C          59.8492   89.9278    8.1223 C.ar    1  UNL1        0.0282
     11 C          59.2336   89.3412    6.8866 C.ar    1  UNL1        0.1400
     12 F          58.4841   90.2221    5.9314 F       1  UNL1       -0.2042
     13 C          59.3674   87.8738    6.6062 C.ar    1  UNL1        0.0309
     14 C          60.1168   86.9930    7.5614 C.ar    1  UNL1        0.0166
     15 C          60.7325   87.5796    8.7970 C.ar    1  UNL1        0.0456
     16 C          61.2143   89.6337   10.3131 C.3     1  UNL1        0.0953
     17 N          62.3889   90.5594   10.1988 N.am    1  UNL1       -0.3011
     18 C          63.1991   90.8969   11.4153 C.2     1  UNL1        0.2367
     19 O          62.8346   90.3085   12.7460 O.2     1  UNL1       -0.2737
     20 H          62.6282   90.9456    9.3254 H       1  UNL1        0.1497
     21 C          64.3738   91.8227   11.3009 C.3     1  UNL1        0.1284
     22 C          65.3038   92.0015   12.4641 C.3     1  UNL1        0.0267
     23 N          64.6184   92.5697   10.0234 N.3     1  UNL1       -0.3150
     24 H          63.8948   92.3301    9.3456 H       1  UNL1        0.1192
     25 H          65.5324   92.3140    9.6497 H       1  UNL1        0.1192
     26 C          60.6553   89.2945   11.6631 C.3     1  UNL1        0.0242
     27 C          58.4116   88.9764   12.9338 C.3     1  UNL1        0.0001
     28 C          59.3071   89.8124   12.0683 C.3     1  UNL1        0.0020
     29 C          58.8544   91.1663   11.6080 C.3     1  UNL1        0.0001
     30 C          63.1185   83.6895   13.9375 C.3     1  UNL1        0.1564
     31 N          63.1121   84.6814   15.0627 N.am    1  UNL1       -0.2727
     32 C          61.9933   84.9020   16.0372 C.3     1  UNL1        0.0943
     33 C          62.4131   85.9837   16.9877 C.3     1  UNL1        0.0311
     34 C          63.7913   86.4317   16.6006 C.3     1  UNL1        0.0870
     35 C          64.2233   85.6268   15.4109 C.2     1  UNL1        0.2260
     36 O          65.5360   85.7464   14.6951 O.2     1  UNL1       -0.2749
     37 C          62.5132   82.3309   14.1319 C.3     1  UNL1        0.0564
     38 C          62.5972   81.3088   13.0373 C.ar    1  UNL1       -0.0094
     39 C          62.8757   81.7403   11.6279 C.ar    1  UNL1       -0.0025
     40 C          62.9597   80.7182   10.5333 C.ar    1  UNL1        0.0111
     41 C          62.7652   79.2645   10.8481 C.ar    1  UNL1        0.0585
     42 CL         62.8492   78.2423    9.7535 Cl      1  UNL1       -0.0822
     43 C          62.4867   78.8330   12.2574 C.ar    1  UNL1        0.0225
     44 C          62.4027   79.8551   13.3520 C.ar    1  UNL1        0.0546
     45 CL         62.2509   79.4488   14.0208 Cl      1  UNL1       -0.0825
@<TRIPOS>BOND
     1    27    28    1
     2    28    29    1
     3    28    26    1
     4    16    26    1
     5    16    17    1
     6    17    18   am
     7    18    19    2
     8    18    21    1
     9    21    22    1
    10    21    23    1
    11    16     9    1
    12     9    10   ar
    13    10    11   ar
    14    11    12    1
    15    11    13   ar
    16    13    14   ar
    17    14    15   ar
    18    15     1    1
    19     1     2    1
    20     2     3    1
    21     3     4    1
    22     4     5   am
    23     5     6    2
    24     5    30    1
    25    30    37    1
    26    37    38    1
    27    38    39   ar
    28    39    40   ar
    29    40    41   ar
    30    41    42    1
    31    41    43   ar
    32    43    44   ar
    33    44    45    1
    34    30    31    1
    35    31    32    1
    36    32    33    1
    37    33    34    1
    38    34    35    1
    39    35    36    2
    40     4     7    1
    41     7     8    1
    42    15     9   ar
    43     8     1    1
    44    44    38   ar
    45    35    31   am
    46    17    20    1
    47    23    24    1
    48    23    25    1
@<TRIPOS>MOLECULE
*****
 45 48 0 0 0
SMALL
GASTEIGER

@<TRIPOS>ATOM
      1 N          63.9942   91.7707   11.2391 N.pl3   1  UNL1       -0.3043
      2 C          64.2221   90.7246   10.1886 C.3     1  UNL1        0.1123
      3 C          63.4257   89.4537   10.2106 C.3     1  UNL1        0.1149
      4 N          62.4013   89.2289   11.2832 N.am    1  UNL1       -0.2747
      5 C          61.6049   87.9580   11.3051 C.2     1  UNL1        0.2442
      6 O          60.5807   87.7333   12.3777 O.2     1  UNL1       -0.2731
      7 C          62.1735   90.2750   12.3337 C.3     1  UNL1        0.1149
      8 C          62.9700   91.5460   12.3117 C.3     1  UNL1        0.1123
      9 C          65.7935   93.3172   12.2980 C.ar    1  UNL1        0.0111
     10 C          66.5899   94.5881   12.2760 C.ar    1  UNL1        0.0282
     11 C          66.3835   95.5835   11.1730 C.ar    1  UNL1        0.1400
     12 F          67.1800   96.8544   11.1510 F       1  UNL1       -0.2042
     13 C          65.3807   95.3080   10.0921 C.ar    1  UNL1        0.0309
     14 C          64.5843   94.0371   10.1141 C.ar    1  UNL1        0.0166
     15 C          64.7907   93.0417   11.2171 C.ar    1  UNL1        0.0456
     16 C          65.9999   92.3218   13.4010 C.3     1  UNL1        0.0953
     17 N          64.9837   92.1953   14.4970 N.am    1  UNL1       -0.3011
     18 C          64.6201   90.8412   15.0302 C.2     1  UNL1        0.2367
     19 O          65.2728   89.6136   14.4673 O.2     1  UNL1       -0.2737
     20 H          64.5553   93.0011   14.8665 H       1  UNL1        0.1497
     21 C          63.6039   90.7148   16.1262 C.3     1  UNL1        0.1284
     22 C          63.0397   89.3692   16.4744 C.3     1  UNL1        0.0267
     23 N          63.1518   91.9339   16.8741 N.3     1  UNL1       -0.3150
     24 H          63.6342   92.7551   16.5090 H       1  UNL1        0.1192
     25 H          63.3683   91.8248   17.8648 H       1  UNL1        0.1192
     26 C          67.2225   91.4528   13.4080 C.3     1  UNL1        0.0242
     27 C          68.2127   92.0506   15.7344 C.3     1  UNL1        0.0001
     28 C          68.3985   91.8195   14.2641 C.3     1  UNL1        0.0020
     29 C          69.7601   91.9552   13.6497 C.3     1  UNL1        0.0001
     30 C          61.8328   86.9118   10.2546 C.3     1  UNL1        0.1564
     31 N          60.8377   86.7323    9.1467 N.am    1  UNL1       -0.2727
     32 C          59.4640   87.3321    9.0896 C.3     1  UNL1        0.0943
     33 C          58.8189   86.8920    7.8089 C.3     1  UNL1        0.0311
     34 C          59.7940   86.0202    7.0745 C.3     1  UNL1        0.0870
     35 C          61.0416   85.9216    7.9012 C.2     1  UNL1        0.2260
     36 O          62.2764   85.1480    7.5451 O.2     1  UNL1       -0.2749
     37 C          63.0557   86.0452   10.3120 C.3     1  UNL1        0.0564
     38 C          63.0427   84.7823   11.1213 C.ar    1  UNL1       -0.0094
     39 C          62.5046   84.7943   12.5214 C.ar    1  UNL1       -0.0025
     40 C          62.4916   83.5314   13.3307 C.ar    1  UNL1        0.0111
     41 C          63.0166   82.2565   12.7398 C.ar    1  UNL1        0.0585
     42 CL         63.0036   80.9936   13.5491 Cl      1  UNL1       -0.0822
     43 C          63.5547   82.2446   11.3397 C.ar    1  UNL1        0.0225
     44 C          63.5677   83.5075   10.5305 C.ar    1  UNL1        0.0546
     45 CL         63.8832   83.3129    9.8247 Cl      1  UNL1       -0.0825
@<TRIPOS>BOND
     1    27    28    1
     2    28    29    1
     3    28    26    1
     4    16    26    1
     5    16    17    1
     6    17    18   am
     7    18    19    2
     8    18    21    1
     9    21    22    1
    10    21    23    1
    11    16     9    1
    12     9    10   ar
    13    10    11   ar
    14    11    12    1
    15    11    13   ar
    16    13    14   ar
    17    14    15   ar
    18    15     1    1
    19     1     2    1
    20     2     3    1
    21     3     4    1
    22     4     5   am
    23     5     6    2
    24     5    30    1
    25    30    37    1
    26    37    38    1
    27    38    39   ar
    28    39    40   ar
    29    40    41   ar
    30    41    42    1
    31    41    43   ar
    32    43    44   ar
    33    44    45    1
    34    30    31    1
    35    31    32    1
    36    32    33    1
    37    33    34    1
    38    34    35    1
    39    35    36    2
    40     4     7    1
    41     7     8    1
    42    15     9   ar
    43     8     1    1
    44    44    38   ar
    45    35    31   am
    46    17    20    1
    47    23    24    1
    48    23    25    1
