@<TRIPOS>MOLECULE
*****
 24 26 0 0 0
SMALL
GASTEIGER

@<TRIPOS>ATOM
      1 C          65.3225   92.3049   12.8713 C.2     1  UNL1        0.0936
      2 C          64.3059   91.3601   12.3019 C.2     1  UNL1        0.1201
      3 O          63.7052   91.6281   10.9539 O.2     1  UNL1       -0.5092
      4 C          63.8901   90.1474   13.0806 C.3     1  UNL1        0.0690
      5 C          64.4908   89.8794   14.4287 C.3     1  UNL1        0.0375
      6 C          65.5073   90.8241   14.9981 C.3     1  UNL1        0.0746
      7 C          65.9232   92.0368   14.2194 C.2     1  UNL1        0.1819
      8 O          66.9397   92.9815   14.7887 O.2     1  UNL1       -0.2907
      9 H          63.9649   92.3857   10.4674 H       1  UNL1        0.2917
     10 C          64.0750   88.6667   15.2074 C.ar    1  UNL1       -0.0216
     11 C          64.4586   87.2986   14.7265 C.ar    1  UNL1       -0.0043
     12 C          64.0428   86.0859   15.5052 C.ar    1  UNL1       -0.0003
     13 C          63.2434   86.2412   16.7648 C.ar    1  UNL1       -0.0000
     14 C          62.8597   87.6092   17.2458 C.ar    1  UNL1       -0.0003
     15 C          63.2755   88.8220   16.4671 C.ar    1  UNL1       -0.0043
     16 S          65.7383   93.5176   12.0926 S.3     1  UNL1       -0.0807
     17 C          66.6871   94.4386    9.8562 C.ar    1  UNL1        0.0744
     18 C          67.6013   94.2947    8.6757 C.ar    1  UNL1        0.0108
     19 C          68.4808   93.0860    8.5511 C.ar    1  UNL1        0.0007
     20 C          68.4461   92.0212    9.6069 C.ar    1  UNL1        0.0006
     21 C          67.5320   92.1650   10.7874 C.ar    1  UNL1        0.0072
     22 C          66.6525   93.3737   10.9120 C.ar    1  UNL1        0.0392
     23 N          64.9281   96.8559   10.1054 N.1     1  UNL1       -0.1908
     24 C          65.8076   95.6472    9.9808 C.1     1  UNL1        0.1009
@<TRIPOS>BOND
     1    23    24    3
     2    24    17    1
     3    17    18   ar
     4    18    19   ar
     5    19    20   ar
     6    20    21   ar
     7    21    22   ar
     8    22    16    1
     9    16     1    1
    10     1     2    2
    11     2     3    1
    12     2     4    1
    13     4     5    1
    14     5    10    1
    15    10    11   ar
    16    11    12   ar
    17    12    13   ar
    18    13    14   ar
    19    14    15   ar
    20     5     6    1
    21     6     7    1
    22     7     8    2
    23    22    17   ar
    24     7     1    1
    25    15    10   ar
    26     3     9    1
@<TRIPOS>MOLECULE
*****
 24 26 0 0 0
SMALL
GASTEIGER

@<TRIPOS>ATOM
      1 C          62.0014   88.2962   11.1839 C.2     1  UNL1        0.0936
      2 C          61.9677   89.7047   10.6691 C.2     1  UNL1        0.1201
      3 O          61.0285   90.0755    9.5598 O.2     1  UNL1       -0.5092
      4 C          62.8732   90.7424   11.2635 C.3     1  UNL1        0.0690
      5 C          63.8124   90.3716   12.3727 C.3     1  UNL1        0.0375
      6 C          63.8461   88.9631   12.8875 C.3     1  UNL1        0.0746
      7 C          62.9405   87.9254   12.2931 C.2     1  UNL1        0.1819
      8 O          62.9743   86.5169   12.8080 O.2     1  UNL1       -0.2907
      9 H          60.4628   89.4273    9.1885 H       1  UNL1        0.2917
     10 C          64.7179   91.4092   12.9671 C.ar    1  UNL1       -0.0216
     11 C          65.2450   92.5232   12.1120 C.ar    1  UNL1       -0.0043
     12 C          66.1505   93.5609   12.7064 C.ar    1  UNL1       -0.0003
     13 C          66.5289   93.4845   14.1559 C.ar    1  UNL1       -0.0000
     14 C          66.0018   92.3705   15.0110 C.ar    1  UNL1       -0.0003
     15 C          65.0963   91.3328   14.4166 C.ar    1  UNL1       -0.0043
     16 S          61.0959   87.2586   10.5895 S.3     1  UNL1       -0.0807
     17 C          60.8872   86.3357    8.1698 C.ar    1  UNL1        0.0744
     18 C          61.3871   85.4443    7.0719 C.ar    1  UNL1        0.0108
     19 C          62.5955   84.5843    7.2957 C.ar    1  UNL1        0.0007
     20 C          63.3040   84.6156    8.6174 C.ar    1  UNL1        0.0006
     21 C          62.8041   85.5071    9.7153 C.ar    1  UNL1        0.0072
     22 C          61.5957   86.3671    9.4915 C.ar    1  UNL1        0.0392
     23 N          58.4704   88.0558    7.7222 N.1     1  UNL1       -0.1908
     24 C          59.6788   87.1958    7.9460 C.1     1  UNL1        0.1009
@<TRIPOS>BOND
     1    23    24    3
     2    24    17    1
     3    17    18   ar
     4    18    19   ar
     5    19    20   ar
     6    20    21   ar
     7    21    22   ar
     8    22    16    1
     9    16     1    1
    10     1     2    2
    11     2     3    1
    12     2     4    1
    13     4     5    1
    14     5    10    1
    15    10    11   ar
    16    11    12   ar
    17    12    13   ar
    18    13    14   ar
    19    14    15   ar
    20     5     6    1
    21     6     7    1
    22     7     8    2
    23    22    17   ar
    24     7     1    1
    25    15    10   ar
    26     3     9    1
@<TRIPOS>MOLECULE
*****
 24 26 0 0 0
SMALL
GASTEIGER

@<TRIPOS>ATOM
      1 C          63.1688   90.3024   11.8404 C.2     1  UNL1        0.0936
      2 C          62.8778   90.6137   10.4022 C.2     1  UNL1        0.1201
      3 O          62.9839   92.0245    9.9039 O.2     1  UNL1       -0.5092
      4 C          62.4807   89.5142    9.4623 C.3     1  UNL1        0.0690
      5 C          62.3746   88.1034    9.9607 C.3     1  UNL1        0.0375
      6 C          62.6656   87.7920   11.3988 C.3     1  UNL1        0.0746
      7 C          63.0627   88.8916   12.3388 C.2     1  UNL1        0.1819
      8 O          63.3537   88.5803   13.7769 O.2     1  UNL1       -0.2907
      9 H          63.2320   92.7113   10.4910 H       1  UNL1        0.2917
     10 C          61.9775   87.0039    9.0208 C.ar    1  UNL1       -0.0216
     11 C          62.9929   85.9924    8.5781 C.ar    1  UNL1       -0.0043
     12 C          62.5958   84.8929    7.6382 C.ar    1  UNL1       -0.0003
     13 C          61.1833   84.8048    7.1411 C.ar    1  UNL1       -0.0000
     14 C          60.1680   85.8161    7.5838 C.ar    1  UNL1       -0.0003
     15 C          60.5650   86.9157    8.5237 C.ar    1  UNL1       -0.0043
     16 S          63.5659   91.4019   12.7803 S.3     1  UNL1       -0.0807
     17 C          65.4372   91.4650   14.5815 C.ar    1  UNL1        0.0744
     18 C          66.8790   91.6517   14.9508 C.ar    1  UNL1        0.0108
     19 C          67.8912   91.9621   13.8883 C.ar    1  UNL1        0.0007
     20 C          67.4618   92.0858   12.4565 C.ar    1  UNL1        0.0006
     21 C          66.0200   91.8991   12.0872 C.ar    1  UNL1        0.0072
     22 C          65.0077   91.5886   13.1497 C.ar    1  UNL1        0.0392
     23 N          63.4126   90.8442   16.7065 N.1     1  UNL1       -0.1908
     24 C          64.4249   91.1546   15.6440 C.1     1  UNL1        0.1009
@<TRIPOS>BOND
     1    23    24    3
     2    24    17    1
     3    17    18   ar
     4    18    19   ar
     5    19    20   ar
     6    20    21   ar
     7    21    22   ar
     8    22    16    1
     9    16     1    1
    10     1     2    2
    11     2     3    1
    12     2     4    1
    13     4     5    1
    14     5    10    1
    15    10    11   ar
    16    11    12   ar
    17    12    13   ar
    18    13    14   ar
    19    14    15   ar
    20     5     6    1
    21     6     7    1
    22     7     8    2
    23    22    17   ar
    24     7     1    1
    25    15    10   ar
    26     3     9    1
@<TRIPOS>MOLECULE
*****
 24 26 0 0 0
SMALL
GASTEIGER

@<TRIPOS>ATOM
      1 C          61.9994   88.1014   11.2781 C.2     1  UNL1        0.0936
      2 C          62.9309   87.7262   12.3924 C.2     1  UNL1        0.1201
      3 O          62.9752   86.3113   12.8884 O.2     1  UNL1       -0.5092
      4 C          63.8180   88.7658   13.0105 C.3     1  UNL1        0.0690
      5 C          63.7736   90.1807   12.5144 C.3     1  UNL1        0.0375
      6 C          62.8422   90.5560   11.4002 C.3     1  UNL1        0.0746
      7 C          61.9550   89.5163   10.7820 C.2     1  UNL1        0.1819
      8 O          61.0236   89.8916    9.6678 O.2     1  UNL1       -0.2907
      9 H          62.4210   85.6618   12.5023 H       1  UNL1        0.2917
     10 C          64.6607   91.2203   13.1326 C.ar    1  UNL1       -0.0216
     11 C          64.9882   91.1535   14.5949 C.ar    1  UNL1       -0.0043
     12 C          65.8753   92.1931   15.2131 C.ar    1  UNL1       -0.0003
     13 C          66.4349   93.2996   14.3690 C.ar    1  UNL1       -0.0000
     14 C          66.1075   93.3665   12.9068 C.ar    1  UNL1       -0.0003
     15 C          65.2203   92.3268   12.2885 C.ar    1  UNL1       -0.0043
     16 S          61.1123   87.0618   10.6599 S.3     1  UNL1       -0.0807
     17 C          60.9045   86.2337    8.2061 C.ar    1  UNL1        0.0744
     18 C          61.4112   85.3940    7.0711 C.ar    1  UNL1        0.0108
     19 C          62.6326   84.5429    7.2549 C.ar    1  UNL1        0.0007
     20 C          63.3472   84.5313    8.5737 C.ar    1  UNL1        0.0006
     21 C          62.8404   85.3709    9.7087 C.ar    1  UNL1        0.0072
     22 C          61.6190   86.2221    9.5248 C.ar    1  UNL1        0.0392
     23 N          58.4617   87.9360    7.8385 N.1     1  UNL1       -0.1908
     24 C          59.6831   87.0848    8.0223 C.1     1  UNL1        0.1009
@<TRIPOS>BOND
     1    23    24    3
     2    24    17    1
     3    17    18   ar
     4    18    19   ar
     5    19    20   ar
     6    20    21   ar
     7    21    22   ar
     8    22    16    1
     9    16     1    1
    10     1     2    2
    11     2     3    1
    12     2     4    1
    13     4     5    1
    14     5    10    1
    15    10    11   ar
    16    11    12   ar
    17    12    13   ar
    18    13    14   ar
    19    14    15   ar
    20     5     6    1
    21     6     7    1
    22     7     8    2
    23    22    17   ar
    24     7     1    1
    25    15    10   ar
    26     3     9    1
@<TRIPOS>MOLECULE
*****
 24 26 0 0 0
SMALL
GASTEIGER

@<TRIPOS>ATOM
      1 C          62.5381   88.5414   11.5365 C.2     1  UNL1        0.0936
      2 C          63.4748   88.7665   12.6863 C.2     1  UNL1        0.1201
      3 O          63.6304   87.7144   13.7440 O.2     1  UNL1       -0.5092
      4 C          64.2559   90.0438   12.7783 C.3     1  UNL1        0.0690
      5 C          64.1003   91.0960   11.7206 C.3     1  UNL1        0.0375
      6 C          63.1637   90.8709   10.5709 C.3     1  UNL1        0.0746
      7 C          62.3825   89.5936   10.4788 C.2     1  UNL1        0.1819
      8 O          61.4459   89.3685    9.3290 O.2     1  UNL1       -0.2907
      9 H          63.1425   86.9165   13.6865 H       1  UNL1        0.2917
     10 C          64.8814   92.3732   11.8127 C.ar    1  UNL1       -0.0216
     11 C          64.9671   93.2871   10.6263 C.ar    1  UNL1       -0.0043
     12 C          65.7482   94.5644   10.7183 C.ar    1  UNL1       -0.0003
     13 C          66.4436   94.9278   11.9968 C.ar    1  UNL1       -0.0000
     14 C          66.3579   94.0139   13.1831 C.ar    1  UNL1       -0.0003
     15 C          65.5768   92.7366   13.0911 C.ar    1  UNL1       -0.0043
     16 S          61.7570   87.2642   11.4444 S.3     1  UNL1       -0.0807
     17 C          62.7709   84.8749   11.5603 C.ar    1  UNL1        0.0744
     18 C          63.3642   83.6808   10.8733 C.ar    1  UNL1        0.0108
     19 C          63.5370   83.6818    9.3833 C.ar    1  UNL1        0.0007
     20 C          63.1166   84.8770    8.5803 C.ar    1  UNL1        0.0006
     21 C          62.5232   86.0711    9.2674 C.ar    1  UNL1        0.0072
     22 C          62.3504   86.0700   10.7574 C.ar    1  UNL1        0.0392
     23 N          62.4252   84.8728   14.5404 N.1     1  UNL1       -0.1908
     24 C          62.5980   84.8738   13.0503 C.1     1  UNL1        0.1009
@<TRIPOS>BOND
     1    23    24    3
     2    24    17    1
     3    17    18   ar
     4    18    19   ar
     5    19    20   ar
     6    20    21   ar
     7    21    22   ar
     8    22    16    1
     9    16     1    1
    10     1     2    2
    11     2     3    1
    12     2     4    1
    13     4     5    1
    14     5    10    1
    15    10    11   ar
    16    11    12   ar
    17    12    13   ar
    18    13    14   ar
    19    14    15   ar
    20     5     6    1
    21     6     7    1
    22     7     8    2
    23    22    17   ar
    24     7     1    1
    25    15    10   ar
    26     3     9    1
@<TRIPOS>MOLECULE
*****
 24 26 0 0 0
SMALL
GASTEIGER

@<TRIPOS>ATOM
      1 C          62.5492   88.5665   11.5421 C.2     1  UNL1        0.0936
      2 C          62.3960   89.6032   10.4687 C.2     1  UNL1        0.1201
      3 O          61.4650   89.3595    9.3181 O.2     1  UNL1       -0.5092
      4 C          63.1738   90.8834   10.5460 C.3     1  UNL1        0.0690
      5 C          64.1048   91.1271   11.6965 C.3     1  UNL1        0.0375
      6 C          64.2580   90.0905   12.7699 C.3     1  UNL1        0.0746
      7 C          63.4802   88.8102   12.6926 C.2     1  UNL1        0.1819
      8 O          63.6334   87.7737   13.7660 O.2     1  UNL1       -0.2907
      9 H          60.9791   88.5597    9.2699 H       1  UNL1        0.2917
     10 C          64.8826   92.4073   11.7738 C.ar    1  UNL1       -0.0216
     11 C          64.9527   93.3154   10.5819 C.ar    1  UNL1       -0.0043
     12 C          65.7305   94.5956   10.6592 C.ar    1  UNL1       -0.0003
     13 C          66.4382   94.9678   11.9283 C.ar    1  UNL1       -0.0000
     14 C          66.3682   94.0598   13.1201 C.ar    1  UNL1       -0.0003
     15 C          65.5903   92.7795   13.0429 C.ar    1  UNL1       -0.0043
     16 S          61.7714   87.2863   11.4648 S.3     1  UNL1       -0.0807
     17 C          62.7335   84.8745   11.5519 C.ar    1  UNL1        0.0744
     18 C          63.3178   83.6830   10.8528 C.ar    1  UNL1        0.0108
     19 C          63.5243   83.7117    9.3673 C.ar    1  UNL1        0.0007
     20 C          63.1464   84.9319    8.5810 C.ar    1  UNL1        0.0006
     21 C          62.5622   86.1234    9.2802 C.ar    1  UNL1        0.0072
     22 C          62.3557   86.0947   10.7657 C.ar    1  UNL1        0.0392
     23 N          62.3206   84.8171   14.5228 N.1     1  UNL1       -0.1908
     24 C          62.5271   84.8458   13.0374 C.1     1  UNL1        0.1009
@<TRIPOS>BOND
     1    23    24    3
     2    24    17    1
     3    17    18   ar
     4    18    19   ar
     5    19    20   ar
     6    20    21   ar
     7    21    22   ar
     8    22    16    1
     9    16     1    1
    10     1     2    2
    11     2     3    1
    12     2     4    1
    13     4     5    1
    14     5    10    1
    15    10    11   ar
    16    11    12   ar
    17    12    13   ar
    18    13    14   ar
    19    14    15   ar
    20     5     6    1
    21     6     7    1
    22     7     8    2
    23    22    17   ar
    24     7     1    1
    25    15    10   ar
    26     3     9    1
@<TRIPOS>MOLECULE
*****
 24 26 0 0 0
SMALL
GASTEIGER

@<TRIPOS>ATOM
      1 C          62.7007   88.7057   12.1988 C.2     1  UNL1        0.0936
      2 C          63.4068   87.8567   13.2141 C.2     1  UNL1        0.1201
      3 O          63.9908   88.4875   14.4434 O.2     1  UNL1       -0.5092
      4 C          63.5289   86.3771   13.0001 C.3     1  UNL1        0.0690
      5 C          62.9450   85.7464   11.7709 C.3     1  UNL1        0.0375
      6 C          62.2389   86.5952   10.7555 C.3     1  UNL1        0.0746
      7 C          62.1168   88.0749   10.9695 C.2     1  UNL1        0.1819
      8 O          61.4107   88.9237    9.9542 O.2     1  UNL1       -0.2907
      9 H          63.9145   89.4118   14.5770 H       1  UNL1        0.2917
     10 C          63.0671   84.2668   11.5569 C.ar    1  UNL1       -0.0216
     11 C          62.4899   83.3136   12.5611 C.ar    1  UNL1       -0.0043
     12 C          62.6120   81.8340   12.3471 C.ar    1  UNL1       -0.0003
     13 C          63.3113   81.3075   11.1290 C.ar    1  UNL1       -0.0000
     14 C          63.8885   82.2606   10.1248 C.ar    1  UNL1       -0.0003
     15 C          63.7664   83.7403   10.3388 C.ar    1  UNL1       -0.0043
     16 S          62.5786   90.1853   12.4127 S.3     1  UNL1       -0.0807
     17 C          64.5258   91.6923   13.2418 C.ar    1  UNL1        0.0744
     18 C          65.6893   92.5915   12.9455 C.ar    1  UNL1        0.0108
     19 C          66.0690   92.8828   11.5239 C.ar    1  UNL1        0.0007
     20 C          65.2853   92.2750   10.3986 C.ar    1  UNL1        0.0006
     21 C          64.1219   91.3758   10.6949 C.ar    1  UNL1        0.0072
     22 C          63.7421   91.0845   12.1165 C.ar    1  UNL1        0.0392
     23 N          63.7663   91.1096   16.0849 N.1     1  UNL1       -0.1908
     24 C          64.1461   91.4010   14.6633 C.1     1  UNL1        0.1009
@<TRIPOS>BOND
     1    23    24    3
     2    24    17    1
     3    17    18   ar
     4    18    19   ar
     5    19    20   ar
     6    20    21   ar
     7    21    22   ar
     8    22    16    1
     9    16     1    1
    10     1     2    2
    11     2     3    1
    12     2     4    1
    13     4     5    1
    14     5    10    1
    15    10    11   ar
    16    11    12   ar
    17    12    13   ar
    18    13    14   ar
    19    14    15   ar
    20     5     6    1
    21     6     7    1
    22     7     8    2
    23    22    17   ar
    24     7     1    1
    25    15    10   ar
    26     3     9    1
@<TRIPOS>MOLECULE
*****
 24 26 0 0 0
SMALL
GASTEIGER

@<TRIPOS>ATOM
      1 C          62.7183   88.6563   12.3012 C.2     1  UNL1        0.0936
      2 C          62.0935   88.0436   11.0829 C.2     1  UNL1        0.1201
      3 O          61.3481   88.9060   10.1080 O.2     1  UNL1       -0.5092
      4 C          62.2143   86.5684   10.8394 C.3     1  UNL1        0.0690
      5 C          62.9598   85.7059   11.8143 C.3     1  UNL1        0.0375
      6 C          63.5845   86.3186   13.0326 C.3     1  UNL1        0.0746
      7 C          63.4638   87.7938   13.2761 C.2     1  UNL1        0.1819
      8 O          64.0885   88.4065   14.4944 O.2     1  UNL1       -0.2907
      9 H          61.2726   89.8275   10.2601 H       1  UNL1        0.2917
     10 C          63.0806   84.2308   11.5709 C.ar    1  UNL1       -0.0216
     11 C          63.7784   83.7281   10.3419 C.ar    1  UNL1       -0.0043
     12 C          63.8992   82.2529   10.0984 C.ar    1  UNL1       -0.0003
     13 C          63.3222   81.2804   11.0840 C.ar    1  UNL1       -0.0000
     14 C          62.6244   81.7831   12.3130 C.ar    1  UNL1       -0.0003
     15 C          62.5036   83.2583   12.5564 C.ar    1  UNL1       -0.0043
     16 S          62.5975   90.1315   12.5447 S.3     1  UNL1       -0.0807
     17 C          64.5183   91.7208   13.2758 C.ar    1  UNL1        0.0744
     18 C          65.6538   92.6348   12.9219 C.ar    1  UNL1        0.0108
     19 C          66.0040   92.8734   11.4830 C.ar    1  UNL1        0.0007
     20 C          65.2187   92.1981   10.3980 C.ar    1  UNL1        0.0006
     21 C          64.0833   91.2841   10.7519 C.ar    1  UNL1        0.0072
     22 C          63.7330   91.0455   12.1908 C.ar    1  UNL1        0.0392
     23 N          63.8179   91.2435   16.1535 N.1     1  UNL1       -0.1908
     24 C          64.1681   91.4822   14.7147 C.1     1  UNL1        0.1009
@<TRIPOS>BOND
     1    23    24    3
     2    24    17    1
     3    17    18   ar
     4    18    19   ar
     5    19    20   ar
     6    20    21   ar
     7    21    22   ar
     8    22    16    1
     9    16     1    1
    10     1     2    2
    11     2     3    1
    12     2     4    1
    13     4     5    1
    14     5    10    1
    15    10    11   ar
    16    11    12   ar
    17    12    13   ar
    18    13    14   ar
    19    14    15   ar
    20     5     6    1
    21     6     7    1
    22     7     8    2
    23    22    17   ar
    24     7     1    1
    25    15    10   ar
    26     3     9    1
@<TRIPOS>MOLECULE
*****
 24 26 0 0 0
SMALL
GASTEIGER

@<TRIPOS>ATOM
      1 C          62.8511   90.8217   12.0159 C.2     1  UNL1        0.0936
      2 C          63.9019   91.6302   11.3142 C.2     1  UNL1        0.1201
      3 O          63.7128   92.0214    9.8785 O.2     1  UNL1       -0.5092
      4 C          65.1417   92.0473   12.0481 C.3     1  UNL1        0.0690
      5 C          65.3308   91.6561   13.4838 C.3     1  UNL1        0.0375
      6 C          64.2801   90.8477   14.1855 C.3     1  UNL1        0.0746
      7 C          63.0402   90.4305   13.4516 C.2     1  UNL1        0.1819
      8 O          61.9895   89.6221   14.1533 O.2     1  UNL1       -0.2907
      9 H          62.9383   91.7608    9.4200 H       1  UNL1        0.2917
     10 C          66.5707   92.0733   14.2178 C.ar    1  UNL1       -0.0216
     11 C          67.9167   91.8877   13.5823 C.ar    1  UNL1       -0.0043
     12 C          69.1566   92.3049   14.3162 C.ar    1  UNL1       -0.0003
     13 C          69.0504   92.9076   15.6857 C.ar    1  UNL1       -0.0000
     14 C          67.7045   93.0932   16.3212 C.ar    1  UNL1       -0.0003
     15 C          66.4646   92.6760   15.5872 C.ar    1  UNL1       -0.0043
     16 S          61.6113   90.4046   11.2819 S.3     1  UNL1       -0.0807
     17 C          60.3452   88.1448   11.0810 C.ar    1  UNL1        0.0744
     18 C          60.2401   86.7607   10.5124 C.ar    1  UNL1        0.0108
     19 C          61.2961   86.2524    9.5761 C.ar    1  UNL1        0.0007
     20 C          62.4571   87.1281    9.2085 C.ar    1  UNL1        0.0006
     21 C          62.5621   88.5121    9.7771 C.ar    1  UNL1        0.0072
     22 C          61.5062   89.0205   10.7133 C.ar    1  UNL1        0.0392
     23 N          58.2333   89.1614   12.9535 N.1     1  UNL1       -0.1908
     24 C          59.2892   88.6531   12.0173 C.1     1  UNL1        0.1009
@<TRIPOS>BOND
     1    23    24    3
     2    24    17    1
     3    17    18   ar
     4    18    19   ar
     5    19    20   ar
     6    20    21   ar
     7    21    22   ar
     8    22    16    1
     9    16     1    1
    10     1     2    2
    11     2     3    1
    12     2     4    1
    13     4     5    1
    14     5    10    1
    15    10    11   ar
    16    11    12   ar
    17    12    13   ar
    18    13    14   ar
    19    14    15   ar
    20     5     6    1
    21     6     7    1
    22     7     8    2
    23    22    17   ar
    24     7     1    1
    25    15    10   ar
    26     3     9    1
