@<TRIPOS>MOLECULE
*****
 35 38 0 0 0
SMALL
GASTEIGER

@<TRIPOS>ATOM
      1 N          63.0252   90.8401   11.7427 N.am    1  UNL1       -0.2438
      2 C          63.5512   91.4696   10.4869 C.3     1  UNL1        0.1009
      3 C          64.7421   92.3798   10.5462 C.3     1  UNL1        0.0662
      4 C          65.4070   92.6603   11.8611 C.3     1  UNL1        0.1600
      5 O          64.8810   92.0307   13.1169 O.3     1  UNL1       -0.4374
      6 C          63.6902   91.1206   13.0578 C.2     1  UNL1        0.4051
      7 O          63.1642   90.4911   14.3135 O.2     1  UNL1       -0.2262
      8 C          66.2677   93.4870   10.9525 C.ar    1  UNL1        0.0138
      9 C          67.1810   92.8166    9.9694 C.ar    1  UNL1       -0.0010
     10 C          68.0416   93.6432    9.0608 C.ar    1  UNL1       -0.0002
     11 C          67.9890   95.1405    9.1350 C.ar    1  UNL1       -0.0000
     12 C          67.0758   95.8110   10.1180 C.ar    1  UNL1       -0.0002
     13 C          66.2151   94.9843   11.0268 C.ar    1  UNL1       -0.0010
     14 C          61.8344   89.9300   11.6836 C.3     1  UNL1        0.1011
     15 C          60.4505   90.5072   11.6447 C.3     1  UNL1        0.0265
     16 C          62.4135   85.4678   11.6225 C.ar    1  UNL1        0.0015
     17 C          61.3470   86.0973   10.7762 C.ar    1  UNL1       -0.0002
     18 C          61.1540   87.5847   10.7965 C.ar    1  UNL1       -0.0027
     19 C          62.0274   88.4426   11.6632 C.ar    1  UNL1       -0.0042
     20 C          63.0939   87.8130   12.5095 C.ar    1  UNL1       -0.0027
     21 C          63.2869   86.3256   12.4891 C.ar    1  UNL1       -0.0002
     22 C          62.9926   81.0056   11.5614 C.ar    1  UNL1        0.2250
     23 C          63.4423   81.8363   10.3962 C.ar    1  UNL1        0.0577
     24 C          63.2492   83.3237   10.4165 C.ar    1  UNL1        0.0063
     25 C          62.6065   83.9804   11.6021 C.ar    1  UNL1        0.0194
     26 C          62.1569   83.1497   12.7673 C.ar    1  UNL1        0.1020
     27 N          62.3499   81.6623   12.7469 N.ar    1  UNL1       -0.2101
     28 C          62.8491   78.7351   10.3067 C.3     1  UNL1        0.2542
     29 O          63.1856   79.5182   11.5410 O.3     1  UNL1       -0.4561
     30 C          66.3708   93.2280   12.8606 C.3     1  UNL1        0.0714
     31 C          67.0179   92.3294   13.8725 C.3     1  UNL1        0.0922
     32 C          66.2129   92.9754   14.9609 C.3     1  UNL1        0.0294
     33 C          67.8230   91.6835   12.7840 C.3     1  UNL1        0.0294
     34 O          67.6651   91.4309   14.8844 O.3     1  UNL1       -0.3866
     35 H          67.3137   91.6310   15.7661 H       1  UNL1        0.2102
@<TRIPOS>BOND
     1    28    29    1
     2    29    22    1
     3    22    23   ar
     4    23    24   ar
     5    24    25   ar
     6    25    16    1
     7    16    17   ar
     8    17    18   ar
     9    18    19   ar
    10    19    14    1
    11    14    15    1
    12    14     1    1
    13     1     2    1
    14     2     3    1
    15     3     4    1
    16     4    30    1
    17    30    31    1
    18    31    32    1
    19    31    33    1
    20    31    34    1
    21     4     8    1
    22     8     9   ar
    23     9    10   ar
    24    10    11   ar
    25    11    12   ar
    26    12    13   ar
    27     4     5    1
    28     5     6    1
    29     6     7    2
    30    19    20   ar
    31    20    21   ar
    32    25    26   ar
    33    26    27   ar
    34    27    22   ar
    35    21    16   ar
    36     6     1   am
    37    13     8   ar
    38    34    35    1
@<TRIPOS>MOLECULE
*****
 35 38 0 0 0
SMALL
GASTEIGER

@<TRIPOS>ATOM
      1 N          63.4205   90.4668   12.0151 N.am    1  UNL1       -0.2438
      2 C          64.0665   90.3004   13.3586 C.3     1  UNL1        0.1009
      3 C          65.2609   91.1309   13.7245 C.3     1  UNL1        0.0662
      4 C          65.8092   92.1276   12.7470 C.3     1  UNL1        0.1600
      5 O          65.1632   92.2940   11.4035 O.3     1  UNL1       -0.4374
      6 C          63.9689   91.4636   11.0375 C.2     1  UNL1        0.4051
      7 O          63.3229   91.6300    9.6940 O.2     1  UNL1       -0.2262
      8 C          66.7603   92.3321   13.8887 C.ar    1  UNL1        0.0138
      9 C          66.2385   92.7288   15.2378 C.ar    1  UNL1       -0.0010
     10 C          67.1896   92.9333   16.3795 C.ar    1  UNL1       -0.0002
     11 C          68.6627   92.7410   16.1721 C.ar    1  UNL1       -0.0000
     12 C          69.1846   92.3443   14.8230 C.ar    1  UNL1       -0.0002
     13 C          68.2335   92.1398   13.6812 C.ar    1  UNL1       -0.0010
     14 C          62.2262   89.6364   11.6491 C.3     1  UNL1        0.1011
     15 C          60.9340   90.3028   11.2801 C.3     1  UNL1        0.0265
     16 C          62.5196   85.1459   11.6585 C.ar    1  UNL1        0.0015
     17 C          63.2732   85.9489   12.6769 C.ar    1  UNL1       -0.0002
     18 C          63.1754   87.4457   12.6738 C.ar    1  UNL1       -0.0027
     19 C          62.3240   88.1396   11.6523 C.ar    1  UNL1       -0.0042
     20 C          61.5703   87.3366   10.6339 C.ar    1  UNL1       -0.0027
     21 C          61.6681   85.8398   10.6370 C.ar    1  UNL1       -0.0002
     22 C          62.8130   80.6555   11.6680 C.ar    1  UNL1        0.2250
     23 C          63.2174   81.4310   10.4494 C.ar    1  UNL1        0.0577
     24 C          63.1196   82.9278   10.4462 C.ar    1  UNL1        0.0063
     25 C          62.6174   83.6491   11.6617 C.ar    1  UNL1        0.0194
     26 C          62.2130   82.8737   12.8803 C.ar    1  UNL1        0.1020
     27 N          62.3108   81.3769   12.8834 N.ar    1  UNL1       -0.2101
     28 C          62.8357   78.3995   10.3796 C.3     1  UNL1        0.2542
     29 O          62.9108   79.1587   11.6711 O.3     1  UNL1       -0.4561
     30 C          66.6879   93.1955   12.1659 C.3     1  UNL1        0.0714
     31 C          66.5416   93.5851   10.7247 C.3     1  UNL1        0.0922
     32 C          65.7236   94.7755   11.1296 C.3     1  UNL1        0.0294
     33 C          67.3596   92.3947   10.3199 C.3     1  UNL1        0.0294
     34 O          66.3954   93.9747    9.2836 O.3     1  UNL1       -0.3866
     35 H          65.8651   94.7845    9.2198 H       1  UNL1        0.2102
@<TRIPOS>BOND
     1    28    29    1
     2    29    22    1
     3    22    23   ar
     4    23    24   ar
     5    24    25   ar
     6    25    16    1
     7    16    17   ar
     8    17    18   ar
     9    18    19   ar
    10    19    14    1
    11    14    15    1
    12    14     1    1
    13     1     2    1
    14     2     3    1
    15     3     4    1
    16     4    30    1
    17    30    31    1
    18    31    32    1
    19    31    33    1
    20    31    34    1
    21     4     8    1
    22     8     9   ar
    23     9    10   ar
    24    10    11   ar
    25    11    12   ar
    26    12    13   ar
    27     4     5    1
    28     5     6    1
    29     6     7    2
    30    19    20   ar
    31    20    21   ar
    32    25    26   ar
    33    26    27   ar
    34    27    22   ar
    35    21    16   ar
    36     6     1   am
    37    13     8   ar
    38    34    35    1
