@<TRIPOS>MOLECULE
*****
 29 31 0 0 0
SMALL
GASTEIGER

@<TRIPOS>ATOM
      1 C          64.5718   88.4073   14.7799 C.3     1  UNL1        0.0518
      2 C          63.8797   87.5962   13.7247 C.ar    1  UNL1        0.0568
      3 N          63.3254   88.2698   12.5045 N.ar    1  UNL1       -0.2456
      4 C          62.6333   87.4589   11.4493 C.ar    1  UNL1        0.1319
      5 C          62.4954   85.9744   11.6144 C.ar    1  UNL1        0.0196
      6 C          63.0496   85.3008   12.8347 C.ar    1  UNL1       -0.0015
      7 C          63.7418   86.1118   13.8899 C.ar    1  UNL1        0.0068
      8 C          61.7684   85.4402   10.4160 C.3     1  UNL1        0.1226
      9 N          61.4570   86.5946    9.5103 N.am    1  UNL1       -0.2623
     10 C          61.9915   87.8422   10.1488 C.2     1  UNL1        0.2671
     11 O          61.9003   89.2295    9.5858 O.2     1  UNL1       -0.2682
     12 C          62.9118   83.8163   12.9999 C.ar    1  UNL1        0.0102
     13 C          61.9941   83.2604   14.0482 C.ar    1  UNL1        0.0017
     14 C          61.8562   81.7759   14.2135 C.ar    1  UNL1        0.0114
     15 C          62.6360   80.8474   13.3304 C.ar    1  UNL1        0.0585
     16 CL         62.4981   79.3630   13.4957 Cl      1  UNL1       -0.0822
     17 C          63.5537   81.4033   12.2822 C.ar    1  UNL1        0.0228
     18 C          63.6916   82.8878   12.1169 C.ar    1  UNL1        0.0585
     19 CL         64.6092   83.4437   11.0686 Cl      1  UNL1       -0.0822
     20 C          64.2961   85.4382   15.1102 C.3     1  UNL1        0.0934
     21 N          63.5749   85.5489   16.4208 N.3     1  UNL1       -0.3174
     22 H          63.5927   86.5182   16.7379 H       1  UNL1        0.1192
     23 H          64.0339   84.9564   17.1126 H       1  UNL1        0.1192
     24 C          60.7374   86.5153    8.1965 C.3     1  UNL1        0.1793
     25 C          59.4966   87.3272    7.9709 C.2     1  UNL1        0.2397
     26 N          59.5980   88.8084    7.7563 N.am    1  UNL1       -0.3274
     27 O          58.1541   86.6581    7.9598 O.2     1  UNL1       -0.2735
     28 H          60.4790   89.2476    7.7636 H       1  UNL1        0.1450
     29 H          58.7835   89.3412    7.6082 H       1  UNL1        0.1450
@<TRIPOS>BOND
     1     1     2    1
     2     2     3   ar
     3     3     4   ar
     4     4     5   ar
     5     5     6   ar
     6     6    12    1
     7    12    13   ar
     8    13    14   ar
     9    14    15   ar
    10    15    16    1
    11    15    17   ar
    12    17    18   ar
    13    18    19    1
    14     6     7   ar
    15     7    20    1
    16    20    21    1
    17     5     8    1
    18     8     9    1
    19     9    24    1
    20    24    25    1
    21    25    26   am
    22    25    27    2
    23     9    10   am
    24    10    11    2
    25     7     2   ar
    26    10     4    1
    27    18    12   ar
    28    21    22    1
    29    21    23    1
    30    26    28    1
    31    26    29    1
@<TRIPOS>MOLECULE
*****
 29 31 0 0 0
SMALL
GASTEIGER

@<TRIPOS>ATOM
      1 C          65.8472   91.9707   15.9585 C.3     1  UNL1        0.0518
      2 C          65.3860   91.9252   14.5318 C.ar    1  UNL1        0.0568
      3 N          64.3403   90.9346   14.1130 N.ar    1  UNL1       -0.2456
      4 C          63.8790   90.8890   12.6865 C.ar    1  UNL1        0.1319
      5 C          64.4634   91.8339   11.6787 C.ar    1  UNL1        0.0196
      6 C          65.5090   92.8245   12.0975 C.ar    1  UNL1       -0.0015
      7 C          65.9703   92.8701   13.5241 C.ar    1  UNL1        0.0068
      8 C          63.8166   91.5570   10.3540 C.3     1  UNL1        0.1226
      9 N          62.8324   90.4409   10.5430 N.am    1  UNL1       -0.2623
     10 C          62.8710   90.0281   11.9846 C.2     1  UNL1        0.2671
     11 O          62.0464   88.9445   12.6137 O.2     1  UNL1       -0.2682
     12 C          66.0935   93.7695   11.0897 C.ar    1  UNL1        0.0102
     13 C          65.5427   95.1583   10.9563 C.ar    1  UNL1        0.0017
     14 C          66.1270   96.1033    9.9487 C.ar    1  UNL1        0.0114
     15 C          67.2622   95.6595    9.0744 C.ar    1  UNL1        0.0585
     16 CL         67.8465   96.6045    8.0667 Cl      1  UNL1       -0.0822
     17 C          67.8130   94.2707    9.2078 C.ar    1  UNL1        0.0228
     18 C          67.2286   93.3256   10.2155 C.ar    1  UNL1        0.0585
     19 CL         67.7795   91.9368   10.3489 Cl      1  UNL1       -0.0822
     20 C          67.0160   93.8607   13.9430 C.3     1  UNL1        0.0934
     21 N          68.3146   93.3813   14.5208 N.3     1  UNL1       -0.3174
     22 H          68.1407   92.9273   15.4175 H       1  UNL1        0.1192
     23 H          68.9397   94.1756   14.6575 H       1  UNL1        0.1192
     24 C          61.9624   89.8427    9.4776 C.3     1  UNL1        0.1793
     25 C          60.4992   89.6341    9.7336 C.2     1  UNL1        0.2397
     26 N          59.8097   90.4078   10.8182 N.am    1  UNL1       -0.3274
     27 O          59.7254   88.6519    8.9051 O.2     1  UNL1       -0.2735
     28 H          60.3176   91.0525   11.3620 H       1  UNL1        0.1450
     29 H          58.8494   90.2709   10.9862 H       1  UNL1        0.1450
@<TRIPOS>BOND
     1     1     2    1
     2     2     3   ar
     3     3     4   ar
     4     4     5   ar
     5     5     6   ar
     6     6    12    1
     7    12    13   ar
     8    13    14   ar
     9    14    15   ar
    10    15    16    1
    11    15    17   ar
    12    17    18   ar
    13    18    19    1
    14     6     7   ar
    15     7    20    1
    16    20    21    1
    17     5     8    1
    18     8     9    1
    19     9    24    1
    20    24    25    1
    21    25    26   am
    22    25    27    2
    23     9    10   am
    24    10    11    2
    25     7     2   ar
    26    10     4    1
    27    18    12   ar
    28    21    22    1
    29    21    23    1
    30    26    28    1
    31    26    29    1
@<TRIPOS>MOLECULE
*****
 29 31 0 0 0
SMALL
GASTEIGER

@<TRIPOS>ATOM
      1 C          64.0503   84.7205   15.0050 C.3     1  UNL1        0.0518
      2 C          63.7868   85.9064   14.1250 C.ar    1  UNL1        0.0568
      3 N          64.3169   87.2565   14.5074 N.ar    1  UNL1       -0.2456
      4 C          64.0535   88.4424   13.6275 C.ar    1  UNL1        0.1319
      5 C          63.2600   88.2782   12.3652 C.ar    1  UNL1        0.0196
      6 C          62.7300   86.9281   11.9827 C.ar    1  UNL1       -0.0015
      7 C          62.9934   85.7422   12.8627 C.ar    1  UNL1        0.0068
      8 C          63.1612   89.6199   11.7019 C.3     1  UNL1        0.1226
      9 N          63.8936   90.6134   12.5543 N.am    1  UNL1       -0.2623
     10 C          64.4451   89.8856   13.7444 C.2     1  UNL1        0.2671
     11 O          65.2473   90.4943   14.8562 O.2     1  UNL1       -0.2682
     12 C          61.9365   86.7638   10.7204 C.ar    1  UNL1        0.0102
     13 C          62.5161   86.0047    9.5638 C.ar    1  UNL1        0.0017
     14 C          61.7227   85.8403    8.3014 C.ar    1  UNL1        0.0114
     15 C          60.3498   86.4352    8.1958 C.ar    1  UNL1        0.0585
     16 CL         59.5564   86.2708    6.9334 Cl      1  UNL1       -0.0822
     17 C          59.7702   87.1943    9.3524 C.ar    1  UNL1        0.0228
     18 C          60.5636   87.3587   10.6148 C.ar    1  UNL1        0.0585
     19 CL         59.9841   88.1178   11.7714 Cl      1  UNL1       -0.0822
     20 C          62.4634   84.3920   12.4803 C.3     1  UNL1        0.0934
     21 N          63.3678   83.3882   11.8287 N.3     1  UNL1       -0.3174
     22 H          63.6469   83.7289   10.9087 H       1  UNL1        0.1192
     23 H          62.8744   82.5013   11.7276 H       1  UNL1        0.1192
     24 C          64.0476   92.0776   12.2671 C.3     1  UNL1        0.1793
     25 C          65.4048   92.6461   11.9759 C.2     1  UNL1        0.2397
     26 N          66.3527   92.9386   13.1011 N.am    1  UNL1       -0.3274
     27 O          65.8141   92.9221   10.5595 O.2     1  UNL1       -0.2735
     28 H          66.0841   92.7574   14.0307 H       1  UNL1        0.1450
     29 H          67.2435   93.3117   12.9099 H       1  UNL1        0.1450
@<TRIPOS>BOND
     1     1     2    1
     2     2     3   ar
     3     3     4   ar
     4     4     5   ar
     5     5     6   ar
     6     6    12    1
     7    12    13   ar
     8    13    14   ar
     9    14    15   ar
    10    15    16    1
    11    15    17   ar
    12    17    18   ar
    13    18    19    1
    14     6     7   ar
    15     7    20    1
    16    20    21    1
    17     5     8    1
    18     8     9    1
    19     9    24    1
    20    24    25    1
    21    25    26   am
    22    25    27    2
    23     9    10   am
    24    10    11    2
    25     7     2   ar
    26    10     4    1
    27    18    12   ar
    28    21    22    1
    29    21    23    1
    30    26    28    1
    31    26    29    1
@<TRIPOS>MOLECULE
*****
 29 31 0 0 0
SMALL
GASTEIGER

@<TRIPOS>ATOM
      1 C          67.4318   91.9898   16.5215 C.3     1  UNL1        0.0518
      2 C          66.6196   91.8389   15.2694 C.ar    1  UNL1        0.0568
      3 N          65.2762   91.1737   15.3226 N.ar    1  UNL1       -0.2456
      4 C          64.4640   91.0228   14.0706 C.ar    1  UNL1        0.1319
      5 C          64.9952   91.5370   12.7654 C.ar    1  UNL1        0.0196
      6 C          66.3386   92.2021   12.7123 C.ar    1  UNL1       -0.0015
      7 C          67.1508   92.3530   13.9644 C.ar    1  UNL1        0.0068
      8 C          63.9758   91.2478   11.7038 C.3     1  UNL1        0.1226
      9 N          62.8145   90.5548   12.3528 N.am    1  UNL1       -0.2623
     10 C          63.1162   90.4158   13.8156 C.2     1  UNL1        0.2671
     11 O          62.2264   89.7811   14.8429 O.2     1  UNL1       -0.2682
     12 C          66.8699   92.7163   11.4071 C.ar    1  UNL1        0.0102
     13 C          67.6716   91.8144   10.5162 C.ar    1  UNL1        0.0017
     14 C          68.2029   92.3285    9.2111 C.ar    1  UNL1        0.0114
     15 C          67.9325   93.7446    8.7969 C.ar    1  UNL1        0.0585
     16 CL         68.4638   94.2587    7.4918 Cl      1  UNL1       -0.0822
     17 C          67.1308   94.6465    9.6879 C.ar    1  UNL1        0.0228
     18 C          66.5995   94.1324   10.9930 C.ar    1  UNL1        0.0585
     19 CL         65.7977   95.0343   11.8839 Cl      1  UNL1       -0.0822
     20 C          68.4943   93.0182   13.9112 C.3     1  UNL1        0.0934
     21 N          69.7425   92.1867   13.8904 N.3     1  UNL1       -0.3174
     22 H          69.8338   91.6882   14.7755 H       1  UNL1        0.1192
     23 H          70.5523   92.7923   13.7562 H       1  UNL1        0.1192
     24 C          61.5699   90.0836   11.6606 C.3     1  UNL1        0.1793
     25 C          61.2499   88.6192   11.6077 C.2     1  UNL1        0.2397
     26 N          59.8208   88.1635   11.5997 N.am    1  UNL1       -0.3274
     27 O          62.3590   87.6103   11.5627 O.2     1  UNL1       -0.2735
     28 H          59.0928   88.8256   11.6292 H       1  UNL1        0.1450
     29 H          59.6108   87.2022   11.5649 H       1  UNL1        0.1450
@<TRIPOS>BOND
     1     1     2    1
     2     2     3   ar
     3     3     4   ar
     4     4     5   ar
     5     5     6   ar
     6     6    12    1
     7    12    13   ar
     8    13    14   ar
     9    14    15   ar
    10    15    16    1
    11    15    17   ar
    12    17    18   ar
    13    18    19    1
    14     6     7   ar
    15     7    20    1
    16    20    21    1
    17     5     8    1
    18     8     9    1
    19     9    24    1
    20    24    25    1
    21    25    26   am
    22    25    27    2
    23     9    10   am
    24    10    11    2
    25     7     2   ar
    26    10     4    1
    27    18    12   ar
    28    21    22    1
    29    21    23    1
    30    26    28    1
    31    26    29    1
@<TRIPOS>MOLECULE
*****
 29 31 0 0 0
SMALL
GASTEIGER

@<TRIPOS>ATOM
      1 C          64.6249   82.1143   10.0228 C.3     1  UNL1        0.0518
      2 C          63.8610   83.3209   10.4818 C.ar    1  UNL1        0.0568
      3 N          63.0842   84.1378    9.4923 N.ar    1  UNL1       -0.2456
      4 C          62.3203   85.3444    9.9513 C.ar    1  UNL1        0.1319
      5 C          62.3333   85.7341   11.3997 C.ar    1  UNL1        0.0196
      6 C          63.1100   84.9171   12.3892 C.ar    1  UNL1       -0.0015
      7 C          63.8739   83.7105   11.9302 C.ar    1  UNL1        0.0068
      8 C          61.4913   86.9656   11.5560 C.3     1  UNL1        0.1226
      9 N          60.9580   87.3371   10.2041 N.am    1  UNL1       -0.2623
     10 C          61.4704   86.3352    9.2123 C.2     1  UNL1        0.2671
     11 O          61.1832   86.3257    7.7401 O.2     1  UNL1       -0.2682
     12 C          63.1230   85.3067   13.8377 C.ar    1  UNL1        0.0102
     13 C          63.9159   86.4982   14.2868 C.ar    1  UNL1        0.0017
     14 C          63.9289   86.8879   15.7352 C.ar    1  UNL1        0.0114
     15 C          63.1491   86.0859   16.7346 C.ar    1  UNL1        0.0585
     16 CL         63.1621   86.4756   18.1830 Cl      1  UNL1       -0.0822
     17 C          62.3562   84.8944   16.2855 C.ar    1  UNL1        0.0228
     18 C          62.3432   84.5048   14.8371 C.ar    1  UNL1        0.0585
     19 CL         61.5504   83.3132   14.3880 Cl      1  UNL1       -0.0822
     20 C          64.6508   82.8935   12.9198 C.3     1  UNL1        0.0934
     21 N          64.1578   81.5352   13.3222 N.3     1  UNL1       -0.3174
     22 H          63.2790   81.6295   13.8313 H       1  UNL1        0.1192
     23 H          64.8507   81.0855   13.9206 H       1  UNL1        0.1192
     24 C          60.0685   88.5054    9.8978 C.3     1  UNL1        0.1793
     25 C          60.4428   89.8779   10.3732 C.2     1  UNL1        0.2397
     26 N          61.7726   90.4639   10.0012 N.am    1  UNL1       -0.3274
     27 O          59.4873   90.6646   11.2206 O.2     1  UNL1       -0.2735
     28 H          62.3998   89.9476    9.4450 H       1  UNL1        0.1450
     29 H          62.0182   91.3648   10.3133 H       1  UNL1        0.1450
@<TRIPOS>BOND
     1     1     2    1
     2     2     3   ar
     3     3     4   ar
     4     4     5   ar
     5     5     6   ar
     6     6    12    1
     7    12    13   ar
     8    13    14   ar
     9    14    15   ar
    10    15    16    1
    11    15    17   ar
    12    17    18   ar
    13    18    19    1
    14     6     7   ar
    15     7    20    1
    16    20    21    1
    17     5     8    1
    18     8     9    1
    19     9    24    1
    20    24    25    1
    21    25    26   am
    22    25    27    2
    23     9    10   am
    24    10    11    2
    25     7     2   ar
    26    10     4    1
    27    18    12   ar
    28    21    22    1
    29    21    23    1
    30    26    28    1
    31    26    29    1
@<TRIPOS>MOLECULE
*****
 29 31 0 0 0
SMALL
GASTEIGER

@<TRIPOS>ATOM
      1 C          62.1240   84.6472    6.6236 C.3     1  UNL1        0.0518
      2 C          62.2112   85.0535    8.0649 C.ar    1  UNL1        0.0568
      3 N          63.0151   84.2317    9.0284 N.ar    1  UNL1       -0.2456
      4 C          63.1023   84.6380   10.4697 C.ar    1  UNL1        0.1319
      5 C          62.3857   85.8661   10.9475 C.ar    1  UNL1        0.0196
      6 C          61.5817   86.6879    9.9840 C.ar    1  UNL1       -0.0015
      7 C          61.4945   86.2815    8.5426 C.ar    1  UNL1        0.0068
      8 C          62.6535   86.0175   12.4156 C.3     1  UNL1        0.1226
      9 N          63.5357   84.8830   12.8451 N.am    1  UNL1       -0.2623
     10 C          63.8131   84.0304   11.6425 C.2     1  UNL1        0.2671
     11 O          64.6537   82.7883   11.6173 O.2     1  UNL1       -0.2682
     12 C          60.8650   87.9160   10.4616 C.ar    1  UNL1        0.0102
     13 C          59.5128   87.7947   11.0994 C.ar    1  UNL1        0.0017
     14 C          58.7960   89.0228   11.5771 C.ar    1  UNL1        0.0114
     15 C          59.4316   90.3720   11.4170 C.ar    1  UNL1        0.0585
     16 CL         58.7148   91.6000   11.8947 Cl      1  UNL1       -0.0822
     17 C          60.7838   90.4932   10.7793 C.ar    1  UNL1        0.0228
     18 C          61.5006   89.2652   10.3016 C.ar    1  UNL1        0.0585
     19 CL         62.8528   89.3864    9.6639 Cl      1  UNL1       -0.0822
     20 C          60.6906   87.1033    7.5790 C.3     1  UNL1        0.0934
     21 N          59.2153   86.8690    7.4425 N.3     1  UNL1       -0.3174
     22 H          59.0532   85.9408    7.0518 H       1  UNL1        0.1192
     23 H          58.8151   87.5734    6.8227 H       1  UNL1        0.1192
     24 C          64.0502   84.6431   14.2336 C.3     1  UNL1        0.1793
     25 C          63.1120   84.1923   15.3136 C.2     1  UNL1        0.2397
     26 N          62.7955   82.7346   15.4720 N.am    1  UNL1       -0.3274
     27 O          62.4903   85.1992   16.2354 O.2     1  UNL1       -0.2735
     28 H          63.2035   82.0737   14.8671 H       1  UNL1        0.1450
     29 H          62.1797   82.4389   16.1809 H       1  UNL1        0.1450
@<TRIPOS>BOND
     1     1     2    1
     2     2     3   ar
     3     3     4   ar
     4     4     5   ar
     5     5     6   ar
     6     6    12    1
     7    12    13   ar
     8    13    14   ar
     9    14    15   ar
    10    15    16    1
    11    15    17   ar
    12    17    18   ar
    13    18    19    1
    14     6     7   ar
    15     7    20    1
    16    20    21    1
    17     5     8    1
    18     8     9    1
    19     9    24    1
    20    24    25    1
    21    25    26   am
    22    25    27    2
    23     9    10   am
    24    10    11    2
    25     7     2   ar
    26    10     4    1
    27    18    12   ar
    28    21    22    1
    29    21    23    1
    30    26    28    1
    31    26    29    1
@<TRIPOS>MOLECULE
*****
 29 31 0 0 0
SMALL
GASTEIGER

@<TRIPOS>ATOM
      1 C          64.2628   91.5232   16.8363 C.3     1  UNL1        0.0518
      2 C          64.3821   91.5012   15.3411 C.ar    1  UNL1        0.0568
      3 N          65.2263   92.5245   14.6410 N.ar    1  UNL1       -0.2456
      4 C          65.3456   92.5026   13.1459 C.ar    1  UNL1        0.1319
      5 C          64.6207   91.4573   12.3509 C.ar    1  UNL1        0.0196
      6 C          63.7765   90.4340   13.0511 C.ar    1  UNL1       -0.0015
      7 C          63.6572   90.4560   14.5462 C.ar    1  UNL1        0.0068
      8 C          64.9257   91.6841   10.8999 C.3     1  UNL1        0.1226
      9 N          65.8391   92.8695   10.7981 N.am    1  UNL1       -0.2623
     10 C          66.0986   93.3754   12.1862 C.2     1  UNL1        0.2671
     11 O          66.9599   94.5481   12.5505 O.2     1  UNL1       -0.2682
     12 C          63.0515   89.3887   12.2561 C.ar    1  UNL1        0.0102
     13 C          63.4084   87.9409   12.4194 C.ar    1  UNL1        0.0017
     14 C          62.6835   86.8956   11.6245 C.ar    1  UNL1        0.0114
     15 C          61.6018   87.2980   10.6665 C.ar    1  UNL1        0.0585
     16 CL         60.8770   86.2527    9.8716 Cl      1  UNL1       -0.0822
     17 C          61.2450   88.7458   10.5032 C.ar    1  UNL1        0.0228
     18 C          61.9699   89.7912   11.2981 C.ar    1  UNL1        0.0585
     19 CL         61.6130   91.2389   11.1349 Cl      1  UNL1       -0.0822
     20 C          62.8130   89.4327   15.2464 C.3     1  UNL1        0.0934
     21 N          63.4610   88.2590   15.9191 N.3     1  UNL1       -0.3174
     22 H          63.9015   87.6650   15.2166 H       1  UNL1        0.1192
     23 H          62.7543   87.7229   16.4227 H       1  UNL1        0.1192
     24 C          66.3954   93.4477    9.5307 C.3     1  UNL1        0.1793
     25 C          67.6838   94.2153    9.5587 C.2     1  UNL1        0.2397
     26 N          67.6704   95.7086    9.4168 N.am    1  UNL1       -0.3274
     27 O          68.9856   93.4898    9.7287 O.2     1  UNL1       -0.2735
     28 H          66.8160   96.1848    9.3052 H       1  UNL1        0.1450
     29 H          68.5160   96.2124    9.4352 H       1  UNL1        0.1450
@<TRIPOS>BOND
     1     1     2    1
     2     2     3   ar
     3     3     4   ar
     4     4     5   ar
     5     5     6   ar
     6     6    12    1
     7    12    13   ar
     8    13    14   ar
     9    14    15   ar
    10    15    16    1
    11    15    17   ar
    12    17    18   ar
    13    18    19    1
    14     6     7   ar
    15     7    20    1
    16    20    21    1
    17     5     8    1
    18     8     9    1
    19     9    24    1
    20    24    25    1
    21    25    26   am
    22    25    27    2
    23     9    10   am
    24    10    11    2
    25     7     2   ar
    26    10     4    1
    27    18    12   ar
    28    21    22    1
    29    21    23    1
    30    26    28    1
    31    26    29    1
@<TRIPOS>MOLECULE
*****
 29 31 0 0 0
SMALL
GASTEIGER

@<TRIPOS>ATOM
      1 C          63.5276   80.6493   11.3365 C.3     1  UNL1        0.0518
      2 C          63.2630   82.1166   11.5020 C.ar    1  UNL1        0.0568
      3 N          63.0381   82.9788   10.2953 N.ar    1  UNL1       -0.2456
      4 C          62.7734   84.4459   10.4607 C.ar    1  UNL1        0.1319
      5 C          62.7337   85.0509   11.8328 C.ar    1  UNL1        0.0196
      6 C          62.9586   84.1887   13.0394 C.ar    1  UNL1       -0.0015
      7 C          63.2233   82.7214   12.8739 C.ar    1  UNL1        0.0068
      8 C          62.4526   86.5169   11.6851 C.3     1  UNL1        0.1226
      9 N          62.3186   86.8180   10.2217 N.am    1  UNL1       -0.2623
     10 C          62.5169   85.5381    9.4650 C.2     1  UNL1        0.2671
     11 O          62.4673   85.3784    7.9744 O.2     1  UNL1       -0.2682
     12 C          62.9189   84.7935   14.4115 C.ar    1  UNL1        0.0102
     13 C          61.6176   84.8896   15.1513 C.ar    1  UNL1        0.0017
     14 C          61.5778   85.4945   16.5234 C.ar    1  UNL1        0.0114
     15 C          62.8393   86.0032   17.1556 C.ar    1  UNL1        0.0585
     16 CL         62.7995   86.6081   18.5276 Cl      1  UNL1       -0.0822
     17 C          64.1406   85.9071   16.4157 C.ar    1  UNL1        0.0228
     18 C          64.1804   85.3023   15.0437 C.ar    1  UNL1        0.0585
     19 CL         65.4817   85.2062   14.3038 Cl      1  UNL1       -0.0822
     20 C          63.4482   81.8592   14.0806 C.3     1  UNL1        0.0934
     21 N          62.2911   81.1559   14.7261 N.3     1  UNL1       -0.3174
     22 H          61.6541   81.8453   15.1253 H       1  UNL1        0.1192
     23 H          62.6352   80.5429   15.4652 H       1  UNL1        0.1192
     24 C          62.0360   88.1629    9.6206 C.3     1  UNL1        0.1793
     25 C          60.6246   88.5626    9.3071 C.2     1  UNL1        0.2397
     26 N          59.4816   87.8950   10.0127 N.am    1  UNL1       -0.3274
     27 O          60.3562   89.6301    8.2880 O.2     1  UNL1       -0.2735
     28 H          59.6577   87.1944   10.6816 H       1  UNL1        0.1450
     29 H          58.5553   88.1575    9.8070 H       1  UNL1        0.1450
@<TRIPOS>BOND
     1     1     2    1
     2     2     3   ar
     3     3     4   ar
     4     4     5   ar
     5     5     6   ar
     6     6    12    1
     7    12    13   ar
     8    13    14   ar
     9    14    15   ar
    10    15    16    1
    11    15    17   ar
    12    17    18   ar
    13    18    19    1
    14     6     7   ar
    15     7    20    1
    16    20    21    1
    17     5     8    1
    18     8     9    1
    19     9    24    1
    20    24    25    1
    21    25    26   am
    22    25    27    2
    23     9    10   am
    24    10    11    2
    25     7     2   ar
    26    10     4    1
    27    18    12   ar
    28    21    22    1
    29    21    23    1
    30    26    28    1
    31    26    29    1
