@<TRIPOS>MOLECULE
*****
 43 46 0 0 0
SMALL
GASTEIGER

@<TRIPOS>ATOM
      1 C          64.1981   85.3670   13.8159 C.3     1  UNL1        0.1484
      2 O          65.3925   84.4617   13.8758 O.3     1  UNL1       -0.3810
      3 H          66.1871   84.9865   14.0604 H       1  UNL1        0.2105
      4 C          64.3638   86.8424   14.0297 C.3     1  UNL1        0.1245
      5 C          63.8367   88.9352   15.4762 C.2     1  UNL1        0.2492
      6 O          63.4925   89.5440   16.8032 O.2     1  UNL1       -0.2699
      7 N          64.0195   87.4512   15.3567 N.am    1  UNL1       -0.2735
      8 C          66.0335   93.1613   11.2252 C.ar    1  UNL1        0.2924
      9 N          64.7443   92.5299   10.7902 N.ar    1  UNL1       -0.1946
     10 C          64.3205   91.5609   11.8539 C.ar    1  UNL1        0.1202
     11 C          63.1319   90.6531   11.9688 C.ar    1  UNL1        0.0225
     12 C          62.9707   89.7779   13.1762 C.ar    1  UNL1        0.0063
     13 C          63.9980   89.8105   14.2688 C.ar    1  UNL1        0.0567
     14 C          65.1866   90.7182   14.1538 C.ar    1  UNL1        0.0437
     15 C          65.3478   91.5934   12.9464 C.ar    1  UNL1        0.1662
     16 O          66.4065   92.5825   12.5578 O.2     1  UNL1       -0.4237
     17 N          66.8129   94.1907   10.4617 N.pl3   1  UNL1       -0.2619
     18 C          66.6763   95.6437   10.8079 C.3     1  UNL1        0.1166
     19 C          68.4256   92.4404    9.4198 C.3     1  UNL1        0.0233
     20 C          67.7288   93.7670    9.3520 C.3     1  UNL1        0.0952
     21 C          63.8582   86.5759   16.5642 C.3     1  UNL1        0.0937
     22 C          62.5726   86.5934   17.3367 C.3     1  UNL1        0.0199
     23 C          61.2851   86.2295   16.6586 C.3     1  UNL1        0.0018
     24 C          62.5745   86.9746   18.7875 C.3     1  UNL1        0.0018
     25 C          62.8379   84.7969   13.5420 C.3     1  UNL1        0.1075
     26 N          61.9668   85.4094   12.4856 N.am    1  UNL1       -0.2695
     27 C          62.2685   85.1739   11.0353 C.2     1  UNL1        0.4020
     28 O          63.4414   84.3259   10.6413 O.2     1  UNL1       -0.2264
     29 H          61.1970   85.9660   12.7442 H       1  UNL1        0.1528
     30 O          61.3973   85.7865    9.9789 O.3     1  UNL1       -0.4291
     31 C          61.6122   87.2115    9.5630 C.3     1  UNL1        0.2447
     32 C          60.8169   88.3086   10.2064 C.ar    1  UNL1        0.0714
     33 C          60.0880   88.2187   11.5143 C.ar    1  UNL1        0.1053
     34 N          59.4314   89.5427   11.7711 N.ar    1  UNL1       -0.2350
     35 C          59.7545   90.4509   10.6218 C.ar    1  UNL1        0.1343
     36 S          60.6108   89.6882    9.6547 S.2     1  UNL1       -0.0652
     37 C          62.3489   83.6144   14.3246 C.3     1  UNL1        0.0485
     38 C          62.3628   82.2479   13.7060 C.ar    1  UNL1       -0.0204
     39 C          61.5614   81.1386   14.3200 C.ar    1  UNL1       -0.0042
     40 C          61.5753   79.7721   13.7014 C.ar    1  UNL1       -0.0003
     41 C          62.3906   79.5150   12.4689 C.ar    1  UNL1       -0.0000
     42 C          63.1921   80.6244   11.8550 C.ar    1  UNL1       -0.0003
     43 C          63.1781   81.9909   12.4735 C.ar    1  UNL1       -0.0042
@<TRIPOS>BOND
     1    19    20    1
     2    20    17    1
     3    17    18    1
     4    17     8    1
     5     8     9   ar
     6     9    10   ar
     7    10    11   ar
     8    11    12   ar
     9    12    13   ar
    10    13     5    1
    11     5     6    2
    12     5     7   am
    13     7    21    1
    14    21    22    1
    15    22    23    1
    16    22    24    1
    17     7     4    1
    18     4     1    1
    19     1     2    1
    20     1    25    1
    21    25    37    1
    22    37    38    1
    23    38    39   ar
    24    39    40   ar
    25    40    41   ar
    26    41    42   ar
    27    42    43   ar
    28    25    26    1
    29    26    27   am
    30    27    28    2
    31    27    30    1
    32    30    31    1
    33    31    32    1
    34    32    33   ar
    35    33    34   ar
    36    34    35   ar
    37    35    36   ar
    38    13    14   ar
    39    14    15   ar
    40    15    16   ar
    41    16     8   ar
    42    15    10   ar
    43    43    38   ar
    44    36    32   ar
    45     2     3    1
    46    26    29    1
@<TRIPOS>MOLECULE
*****
 43 46 0 0 0
SMALL
GASTEIGER

@<TRIPOS>ATOM
      1 C          62.6462   86.1826    9.5453 C.3     1  UNL1        0.1484
      2 O          63.0604   85.6826    8.1932 O.3     1  UNL1       -0.3810
      3 H          63.2133   86.4367    7.6025 H       1  UNL1        0.2105
      4 C          62.5294   87.6569    9.7965 C.3     1  UNL1        0.1245
      5 C          61.0483   89.6608   10.5317 C.2     1  UNL1        0.2492
      6 O          59.6953   90.2922   10.6755 O.2     1  UNL1       -0.2699
      7 N          61.1764   88.2883    9.9402 N.am    1  UNL1       -0.2735
      8 C          65.8362   92.0311   14.0266 C.ar    1  UNL1        0.2924
      9 N          65.8843   92.4956   12.6011 N.ar    1  UNL1       -0.1946
     10 C          64.7230   91.8840   11.8749 C.ar    1  UNL1        0.1202
     11 C          64.2639   91.9853   10.4505 C.ar    1  UNL1        0.0225
     12 C          63.0390   91.2443   10.0028 C.ar    1  UNL1        0.0063
     13 C          62.2732   90.4018   10.9795 C.ar    1  UNL1        0.0567
     14 C          62.7323   90.3005   12.4039 C.ar    1  UNL1        0.0437
     15 C          63.9572   91.0416   12.8516 C.ar    1  UNL1        0.1662
     16 O          64.6452   91.1325   14.1814 O.2     1  UNL1       -0.4237
     17 N          66.8085   92.4005   15.1074 N.pl3   1  UNL1       -0.2619
     18 C          66.3204   92.6402   16.5054 C.3     1  UNL1        0.1166
     19 C          69.1670   93.3152   15.6998 C.3     1  UNL1        0.0233
     20 C          68.2688   92.5301   14.7904 C.3     1  UNL1        0.0952
     21 C          59.9515   87.5472    9.4925 C.3     1  UNL1        0.0937
     22 C          59.6342   87.4370    8.0306 C.3     1  UNL1        0.0199
     23 C          59.6694   86.0986    7.3543 C.3     1  UNL1        0.0018
     24 C          59.2815   88.6653    7.2449 C.3     1  UNL1        0.0018
     25 C          62.3487   85.2084   10.6464 C.3     1  UNL1        0.1075
     26 N          62.3666   83.7344   10.3688 N.am    1  UNL1       -0.2695
     27 C          63.6690   82.9905   10.3496 C.2     1  UNL1        0.4020
     28 O          64.9536   83.7206   10.6079 O.2     1  UNL1       -0.2264
     29 H          61.5235   83.2552   10.1992 H       1  UNL1        0.1528
     30 O          63.6868   81.5165   10.0719 O.3     1  UNL1       -0.4291
     31 C          63.0247   80.5658   11.0246 C.3     1  UNL1        0.2447
     32 C          62.8642   80.9408   12.4681 C.ar    1  UNL1        0.0714
     33 C          63.9732   81.1085   13.4641 C.ar    1  UNL1        0.1053
     34 N          63.3610   81.4853   14.7806 N.ar    1  UNL1       -0.2350
     35 C          61.8734   81.5506   14.5983 C.ar    1  UNL1        0.1343
     36 S          61.5664   81.2140   13.1690 S.2     1  UNL1       -0.0652
     37 C          62.0335   85.7081   12.0251 C.3     1  UNL1        0.0485
     38 C          63.1276   85.8434   13.0423 C.ar    1  UNL1       -0.0204
     39 C          63.8085   84.6193   13.5787 C.ar    1  UNL1       -0.0042
     40 C          64.9026   84.7546   14.5958 C.ar    1  UNL1       -0.0003
     41 C          65.3158   86.1140   15.0766 C.ar    1  UNL1       -0.0000
     42 C          64.6348   87.3381   14.5402 C.ar    1  UNL1       -0.0003
     43 C          63.5407   87.2029   13.5231 C.ar    1  UNL1       -0.0042
@<TRIPOS>BOND
     1    19    20    1
     2    20    17    1
     3    17    18    1
     4    17     8    1
     5     8     9   ar
     6     9    10   ar
     7    10    11   ar
     8    11    12   ar
     9    12    13   ar
    10    13     5    1
    11     5     6    2
    12     5     7   am
    13     7    21    1
    14    21    22    1
    15    22    23    1
    16    22    24    1
    17     7     4    1
    18     4     1    1
    19     1     2    1
    20     1    25    1
    21    25    37    1
    22    37    38    1
    23    38    39   ar
    24    39    40   ar
    25    40    41   ar
    26    41    42   ar
    27    42    43   ar
    28    25    26    1
    29    26    27   am
    30    27    28    2
    31    27    30    1
    32    30    31    1
    33    31    32    1
    34    32    33   ar
    35    33    34   ar
    36    34    35   ar
    37    35    36   ar
    38    13    14   ar
    39    14    15   ar
    40    15    16   ar
    41    16     8   ar
    42    15    10   ar
    43    43    38   ar
    44    36    32   ar
    45     2     3    1
    46    26    29    1
@<TRIPOS>MOLECULE
*****
 43 46 0 0 0
SMALL
GASTEIGER

@<TRIPOS>ATOM
      1 C          61.0041   90.3572   10.5984 C.3     1  UNL1        0.1484
      2 O          60.1274   90.6554   11.7783 O.3     1  UNL1       -0.3810
      3 H          59.1969   90.6234   11.5061 H       1  UNL1        0.2105
      4 C          60.3893   90.0713    9.2603 C.3     1  UNL1        0.1245
      5 C          59.3539   88.3877    7.5740 C.2     1  UNL1        0.2492
      6 O          58.8976   86.9985    7.2398 O.2     1  UNL1       -0.2699
      7 N          59.9329   88.6821    8.9261 N.am    1  UNL1       -0.2735
      8 C          60.6299   92.7801    3.1203 C.ar    1  UNL1        0.2924
      9 N          59.1729   92.7301    3.4733 N.ar    1  UNL1       -0.1946
     10 C          58.9857   91.6726    4.5205 C.ar    1  UNL1        0.1202
     11 C          57.7671   91.1813    5.2442 C.ar    1  UNL1        0.0225
     12 C          57.8899   90.0864    6.2620 C.ar    1  UNL1        0.0063
     13 C          59.2312   89.4827    6.5561 C.ar    1  UNL1        0.0567
     14 C          60.4497   89.9740    5.8325 C.ar    1  UNL1        0.0437
     15 C          60.3270   91.0689    4.8146 C.ar    1  UNL1        0.1662
     16 O          61.3432   91.7534    3.9492 O.2     1  UNL1       -0.4237
     17 N          61.2626   93.6959    2.1148 N.pl3   1  UNL1       -0.2619
     18 C          60.6495   95.0349    1.8297 C.3     1  UNL1        0.1166
     19 C          63.8451   93.7825    1.8449 C.3     1  UNL1        0.0233
     20 C          62.5083   93.2728    1.3943 C.3     1  UNL1        0.0952
     21 C          60.0556   87.5871    9.9440 C.3     1  UNL1        0.0937
     22 C          61.2525   86.6830    9.9323 C.3     1  UNL1        0.0199
     23 C          61.5585   85.8283   11.1264 C.3     1  UNL1        0.0018
     24 C          62.1434   86.6336    8.7265 C.3     1  UNL1        0.0018
     25 C          62.4957   90.3449   10.7563 C.3     1  UNL1        0.1075
     26 N          63.1811   89.1317   11.3119 N.am    1  UNL1       -0.2695
     27 C          63.0820   88.8186   12.7755 C.2     1  UNL1        0.4020
     28 O          62.2976   89.7187   13.6836 O.2     1  UNL1       -0.2264
     29 H          63.6959   88.5410   10.7159 H       1  UNL1        0.1528
     30 O          63.7674   87.6055   13.3311 O.3     1  UNL1       -0.4291
     31 C          64.3758   87.6493   14.7014 C.3     1  UNL1        0.2447
     32 C          63.6590   87.0229   15.8606 C.ar    1  UNL1        0.0714
     33 C          63.3847   85.5591   16.0408 C.ar    1  UNL1        0.1053
     34 N          62.6469   85.3817   17.3347 N.ar    1  UNL1       -0.2350
     35 C          62.4652   86.7357   17.9542 C.ar    1  UNL1        0.1343
     36 S          63.0908   87.7500   17.0431 S.2     1  UNL1       -0.0652
     37 C          63.3020   91.5456   10.3588 C.3     1  UNL1        0.0485
     38 C          64.5422   91.9028   11.1231 C.ar    1  UNL1       -0.0204
     39 C          64.5467   91.8311   12.6213 C.ar    1  UNL1       -0.0042
     40 C          65.7870   92.1883   13.3856 C.ar    1  UNL1       -0.0003
     41 C          67.0228   92.6172   12.6517 C.ar    1  UNL1       -0.0000
     42 C          67.0183   92.6889   11.1534 C.ar    1  UNL1       -0.0003
     43 C          65.7781   92.3317   10.3891 C.ar    1  UNL1       -0.0042
@<TRIPOS>BOND
     1    19    20    1
     2    20    17    1
     3    17    18    1
     4    17     8    1
     5     8     9   ar
     6     9    10   ar
     7    10    11   ar
     8    11    12   ar
     9    12    13   ar
    10    13     5    1
    11     5     6    2
    12     5     7   am
    13     7    21    1
    14    21    22    1
    15    22    23    1
    16    22    24    1
    17     7     4    1
    18     4     1    1
    19     1     2    1
    20     1    25    1
    21    25    37    1
    22    37    38    1
    23    38    39   ar
    24    39    40   ar
    25    40    41   ar
    26    41    42   ar
    27    42    43   ar
    28    25    26    1
    29    26    27   am
    30    27    28    2
    31    27    30    1
    32    30    31    1
    33    31    32    1
    34    32    33   ar
    35    33    34   ar
    36    34    35   ar
    37    35    36   ar
    38    13    14   ar
    39    14    15   ar
    40    15    16   ar
    41    16     8   ar
    42    15    10   ar
    43    43    38   ar
    44    36    32   ar
    45     2     3    1
    46    26    29    1
@<TRIPOS>MOLECULE
*****
 43 46 0 0 0
SMALL
GASTEIGER

@<TRIPOS>ATOM
      1 C          62.5882   86.0269   10.3251 C.3     1  UNL1        0.1484
      2 O          62.7201   85.7978    8.8486 O.3     1  UNL1       -0.3810
      3 H          62.6148   86.6406    8.3800 H       1  UNL1        0.2105
      4 C          62.3324   87.4087   10.8498 C.3     1  UNL1        0.1245
      5 C          61.1300   89.6748   10.4391 C.2     1  UNL1        0.2492
      6 O          59.9268   90.4418    9.9765 O.2     1  UNL1       -0.2699
      7 N          61.1292   88.1757   10.3873 N.am    1  UNL1       -0.2735
      8 C          65.7253   92.0264   14.1954 C.ar    1  UNL1        0.2924
      9 N          65.8642   92.4770   12.7714 N.ar    1  UNL1       -0.1946
     10 C          64.7419   91.8711   11.9819 C.ar    1  UNL1        0.1202
     11 C          64.3705   91.9640   10.5316 C.ar    1  UNL1        0.0225
     12 C          63.1665   91.2319   10.0173 C.ar    1  UNL1        0.0063
     13 C          62.3340   90.4069   10.9534 C.ar    1  UNL1        0.0567
     14 C          62.7054   90.3139   12.4037 C.ar    1  UNL1        0.0437
     15 C          63.9093   91.0460   12.9179 C.ar    1  UNL1        0.1662
     16 O          64.5171   91.1420   14.2859 O.2     1  UNL1       -0.4237
     17 N          66.6349   92.3954   15.3296 N.pl3   1  UNL1       -0.2619
     18 C          66.0723   92.6061   16.7040 C.3     1  UNL1        0.1166
     19 C          68.8756   93.6166   15.8172 C.3     1  UNL1        0.0233
     20 C          68.1070   92.5537   15.0894 C.3     1  UNL1        0.0952
     21 C          59.9252   87.4436    9.8730 C.3     1  UNL1        0.0937
     22 C          59.7003   87.3147    8.3955 C.3     1  UNL1        0.0199
     23 C          59.3663   88.5278    7.5790 C.3     1  UNL1        0.0018
     24 C          59.8095   85.9725    7.7346 C.3     1  UNL1        0.0018
     25 C          62.7122   84.8742   11.2769 C.3     1  UNL1        0.1075
     26 N          63.2488   85.0978   12.6597 N.am    1  UNL1       -0.2695
     27 C          64.4888   84.3827   13.1078 C.2     1  UNL1        0.4020
     28 O          65.1924   83.4440   12.1730 O.2     1  UNL1       -0.2264
     29 H          62.7870   85.7139   13.2733 H       1  UNL1        0.1528
     30 O          65.0254   84.6063   14.4906 O.3     1  UNL1       -0.4291
     31 C          64.0810   84.7627   15.6454 C.3     1  UNL1        0.2447
     32 C          63.6788   86.1327   16.1050 C.ar    1  UNL1        0.0714
     33 C          63.9522   87.4199   15.3850 C.ar    1  UNL1        0.1053
     34 N          63.3750   88.5388   16.2004 N.ar    1  UNL1       -0.2350
     35 C          62.7447   87.9431   17.4244 C.ar    1  UNL1        0.1343
     36 S          62.9325   86.4560   17.3654 S.2     1  UNL1       -0.0652
     37 C          62.2996   83.4980   10.8460 C.3     1  UNL1        0.0485
     38 C          62.3044   82.3696   11.8343 C.ar    1  UNL1       -0.0204
     39 C          62.7895   81.0120   11.4202 C.ar    1  UNL1       -0.0042
     40 C          62.7943   79.8836   12.4085 C.ar    1  UNL1       -0.0003
     41 C          62.3141   80.1129   13.8109 C.ar    1  UNL1       -0.0000
     42 C          61.8290   81.4705   14.2250 C.ar    1  UNL1       -0.0003
     43 C          61.8242   82.5989   13.2367 C.ar    1  UNL1       -0.0042
@<TRIPOS>BOND
     1    19    20    1
     2    20    17    1
     3    17    18    1
     4    17     8    1
     5     8     9   ar
     6     9    10   ar
     7    10    11   ar
     8    11    12   ar
     9    12    13   ar
    10    13     5    1
    11     5     6    2
    12     5     7   am
    13     7    21    1
    14    21    22    1
    15    22    23    1
    16    22    24    1
    17     7     4    1
    18     4     1    1
    19     1     2    1
    20     1    25    1
    21    25    37    1
    22    37    38    1
    23    38    39   ar
    24    39    40   ar
    25    40    41   ar
    26    41    42   ar
    27    42    43   ar
    28    25    26    1
    29    26    27   am
    30    27    28    2
    31    27    30    1
    32    30    31    1
    33    31    32    1
    34    32    33   ar
    35    33    34   ar
    36    34    35   ar
    37    35    36   ar
    38    13    14   ar
    39    14    15   ar
    40    15    16   ar
    41    16     8   ar
    42    15    10   ar
    43    43    38   ar
    44    36    32   ar
    45     2     3    1
    46    26    29    1
@<TRIPOS>MOLECULE
*****
 43 46 0 0 0
SMALL
GASTEIGER

@<TRIPOS>ATOM
      1 C          60.9659   89.0452   10.9972 C.3     1  UNL1        0.1484
      2 O          60.1225   89.9902   11.8007 O.3     1  UNL1       -0.3810
      3 H          60.5706   90.1922   12.6370 H       1  UNL1        0.2105
      4 C          62.2823   88.5702   11.5374 C.3     1  UNL1        0.1245
      5 C          63.8578   88.7858   13.5919 C.2     1  UNL1        0.2492
      6 O          64.6251   89.6406   14.5566 O.2     1  UNL1       -0.2699
      7 N          63.0496   89.4251   12.5020 N.am    1  UNL1       -0.2735
      8 C          63.2417   82.5283   12.4867 C.ar    1  UNL1        0.2924
      9 N          63.8854   82.8145   13.8110 N.ar    1  UNL1       -0.1946
     10 C          63.9808   84.3032   13.9680 C.ar    1  UNL1        0.1202
     11 C          64.5246   85.1635   15.0699 C.ar    1  UNL1        0.0225
     12 C          64.4836   86.6576   14.9445 C.ar    1  UNL1        0.0063
     13 C          63.8988   87.2915   13.7173 C.ar    1  UNL1        0.0567
     14 C          63.3550   86.4313   12.6154 C.ar    1  UNL1        0.0437
     15 C          63.3960   84.9371   12.7407 C.ar    1  UNL1        0.1662
     16 O          62.9392   83.8402   11.8253 O.2     1  UNL1       -0.4237
     17 N          62.9514   81.1689   11.9229 N.pl3   1  UNL1       -0.2619
     18 C          62.4495   80.0765   12.8199 C.3     1  UNL1        0.1166
     19 C          62.8231   79.5585    9.8883 C.3     1  UNL1        0.0233
     20 C          63.1630   80.9020   10.4622 C.3     1  UNL1        0.0952
     21 C          63.0086   90.9193   12.3767 C.3     1  UNL1        0.0937
     22 C          63.9203   91.6162   11.4107 C.3     1  UNL1        0.0199
     23 C          63.5633   91.6803    9.9553 C.3     1  UNL1        0.0018
     24 C          65.1892   92.2490   11.9003 C.3     1  UNL1        0.0018
     25 C          60.4930   88.5752    9.6536 C.3     1  UNL1        0.1075
     26 N          60.3893   89.5447    8.5136 N.am    1  UNL1       -0.2695
     27 C          59.3821   89.3180    7.4255 C.2     1  UNL1        0.4020
     28 O          58.4785   88.1218    7.4773 O.2     1  UNL1       -0.2264
     29 H          60.9823   90.3298    8.4797 H       1  UNL1        0.1528
     30 O          59.2783   90.2875    6.2856 O.3     1  UNL1       -0.4291
     31 C          60.4887   90.6050    5.4586 C.3     1  UNL1        0.2447
     32 C          60.4010   91.6236    4.3610 C.ar    1  UNL1        0.0714
     33 C          59.2008   92.4596    4.0278 C.ar    1  UNL1        0.1053
     34 N          59.5560   93.3378    2.8648 N.ar    1  UNL1       -0.2350
     35 C          60.9757   93.0446    2.4791 C.ar    1  UNL1        0.1343
     36 S          61.4979   91.9852    3.4039 S.2     1  UNL1       -0.0652
     37 C          60.1238   87.1357    9.4498 C.3     1  UNL1        0.0485
     38 C          60.9956   86.2494    8.6104 C.ar    1  UNL1       -0.0204
     39 C          62.4044   85.9616    9.0372 C.ar    1  UNL1       -0.0042
     40 C          63.2762   85.0753    8.1978 C.ar    1  UNL1       -0.0003
     41 C          62.7390   84.4769    6.9316 C.ar    1  UNL1       -0.0000
     42 C          61.3302   84.7647    6.5048 C.ar    1  UNL1       -0.0003
     43 C          60.4584   85.6510    7.3442 C.ar    1  UNL1       -0.0042
@<TRIPOS>BOND
     1    19    20    1
     2    20    17    1
     3    17    18    1
     4    17     8    1
     5     8     9   ar
     6     9    10   ar
     7    10    11   ar
     8    11    12   ar
     9    12    13   ar
    10    13     5    1
    11     5     6    2
    12     5     7   am
    13     7    21    1
    14    21    22    1
    15    22    23    1
    16    22    24    1
    17     7     4    1
    18     4     1    1
    19     1     2    1
    20     1    25    1
    21    25    37    1
    22    37    38    1
    23    38    39   ar
    24    39    40   ar
    25    40    41   ar
    26    41    42   ar
    27    42    43   ar
    28    25    26    1
    29    26    27   am
    30    27    28    2
    31    27    30    1
    32    30    31    1
    33    31    32    1
    34    32    33   ar
    35    33    34   ar
    36    34    35   ar
    37    35    36   ar
    38    13    14   ar
    39    14    15   ar
    40    15    16   ar
    41    16     8   ar
    42    15    10   ar
    43    43    38   ar
    44    36    32   ar
    45     2     3    1
    46    26    29    1
@<TRIPOS>MOLECULE
*****
 43 46 0 0 0
SMALL
GASTEIGER

@<TRIPOS>ATOM
      1 C          63.2669   90.0735   12.3392 C.3     1  UNL1        0.1484
      2 O          63.7869   90.9920   11.2735 O.3     1  UNL1       -0.3810
      3 H          63.4177   90.7326   10.4148 H       1  UNL1        0.2105
      4 C          62.3233   88.9646   11.9788 C.3     1  UNL1        0.1245
      5 C          60.9571   88.0877    9.9503 C.2     1  UNL1        0.2492
      6 O          59.9122   88.3050    8.8963 O.2     1  UNL1       -0.2699
      7 N          61.2784   89.1819   10.9247 N.am    1  UNL1       -0.2735
      8 C          63.2796   82.4862   11.9469 C.ar    1  UNL1        0.2924
      9 N          63.7262   82.8275   10.5562 N.ar    1  UNL1       -0.1946
     10 C          63.1277   84.1531   10.1893 C.ar    1  UNL1        0.1202
     11 C          63.2207   84.9866    8.9457 C.ar    1  UNL1        0.0225
     12 C          62.4972   86.2981    8.8661 C.ar    1  UNL1        0.0063
     13 C          61.6806   86.7761   10.0300 C.ar    1  UNL1        0.0567
     14 C          61.5876   85.9426   11.2736 C.ar    1  UNL1        0.0437
     15 C          62.3111   84.6310   11.3532 C.ar    1  UNL1        0.1662
     16 O          62.4050   83.6009   12.4394 O.2     1  UNL1       -0.4237
     17 N          63.6436   81.2477   12.7108 N.pl3   1  UNL1       -0.2619
     18 C          65.0486   81.0534   13.1989 C.3     1  UNL1        0.1166
     19 C          61.4061   80.5408   13.8260 C.3     1  UNL1        0.0233
     20 C          62.6027   80.2036   12.9867 C.3     1  UNL1        0.0952
     21 C          60.5549   90.4935   10.8450 C.3     1  UNL1        0.0937
     22 C          59.2768   90.6923   11.6046 C.3     1  UNL1        0.0199
     23 C          58.6981   89.5649   12.4072 C.3     1  UNL1        0.0018
     24 C          58.5773   92.0186   11.5617 C.3     1  UNL1        0.0018
     25 C          63.6906   90.2639   13.7655 C.3     1  UNL1        0.1075
     26 N          63.6869   89.0991   14.7108 N.am    1  UNL1       -0.2695
     27 C          63.3351   89.3058   16.1542 C.2     1  UNL1        0.4020
     28 O          62.9870   90.6771   16.6524 O.2     1  UNL1       -0.2264
     29 H          63.9154   88.1991   14.3839 H       1  UNL1        0.1528
     30 O          63.3315   88.1411   17.0995 O.3     1  UNL1       -0.4291
     31 C          62.4965   86.9323   16.7971 C.3     1  UNL1        0.2447
     32 C          63.1238   85.7276   16.1607 C.ar    1  UNL1        0.0714
     33 C          62.5845   84.3283   16.1997 C.ar    1  UNL1        0.1053
     34 N          63.5280   83.4464   15.4368 N.ar    1  UNL1       -0.2350
     35 C          64.6505   84.3006   14.9262 C.ar    1  UNL1        0.1343
     36 S          64.4006   85.7104   15.3737 S.2     1  UNL1       -0.0652
     37 C          64.1179   91.6188   14.2465 C.3     1  UNL1        0.0485
     38 C          65.5660   91.8938   14.5244 C.ar    1  UNL1       -0.0204
     39 C          65.9888   92.3962   15.8730 C.ar    1  UNL1       -0.0042
     40 C          67.4369   92.6712   16.1508 C.ar    1  UNL1       -0.0003
     41 C          68.4624   92.4438   15.0800 C.ar    1  UNL1       -0.0000
     42 C          68.0397   91.9413   13.7314 C.ar    1  UNL1       -0.0003
     43 C          66.5915   91.6664   13.4536 C.ar    1  UNL1       -0.0042
@<TRIPOS>BOND
     1    19    20    1
     2    20    17    1
     3    17    18    1
     4    17     8    1
     5     8     9   ar
     6     9    10   ar
     7    10    11   ar
     8    11    12   ar
     9    12    13   ar
    10    13     5    1
    11     5     6    2
    12     5     7   am
    13     7    21    1
    14    21    22    1
    15    22    23    1
    16    22    24    1
    17     7     4    1
    18     4     1    1
    19     1     2    1
    20     1    25    1
    21    25    37    1
    22    37    38    1
    23    38    39   ar
    24    39    40   ar
    25    40    41   ar
    26    41    42   ar
    27    42    43   ar
    28    25    26    1
    29    26    27   am
    30    27    28    2
    31    27    30    1
    32    30    31    1
    33    31    32    1
    34    32    33   ar
    35    33    34   ar
    36    34    35   ar
    37    35    36   ar
    38    13    14   ar
    39    14    15   ar
    40    15    16   ar
    41    16     8   ar
    42    15    10   ar
    43    43    38   ar
    44    36    32   ar
    45     2     3    1
    46    26    29    1
@<TRIPOS>MOLECULE
*****
 43 46 0 0 0
SMALL
GASTEIGER

@<TRIPOS>ATOM
      1 C          61.9050   85.9097   11.4152 C.3     1  UNL1        0.1484
      2 O          60.5870   86.4043   11.9331 O.3     1  UNL1       -0.3810
      3 H          60.1789   86.9874   11.2741 H       1  UNL1        0.2105
      4 C          62.3878   86.3391   10.0615 C.3     1  UNL1        0.1245
      5 C          61.1084   88.4006    9.1323 C.2     1  UNL1        0.2492
      6 O          60.1469   88.9973    8.1476 O.2     1  UNL1       -0.2699
      7 N          61.4263   86.9358    9.0768 N.am    1  UNL1       -0.2735
      8 C          64.9738   92.4687   12.1764 C.ar    1  UNL1        0.2924
      9 N          63.8825   91.9451   13.0624 N.ar    1  UNL1       -0.1946
     10 C          63.0390   91.0053   12.2529 C.ar    1  UNL1        0.1202
     11 C          61.8255   90.1944   12.5991 C.ar    1  UNL1        0.0225
     12 C          61.1820   89.3261   11.5589 C.ar    1  UNL1        0.0063
     13 C          61.7520   89.2689   10.1725 C.ar    1  UNL1        0.0567
     14 C          62.9654   90.0799    9.8264 C.ar    1  UNL1        0.0437
     15 C          63.6089   90.9481   10.8666 C.ar    1  UNL1        0.1662
     16 O          64.8047   91.8525   10.8193 O.2     1  UNL1       -0.4237
     17 N          66.0459   93.4382   12.5772 N.pl3   1  UNL1       -0.2619
     18 C          66.3490   94.6226   11.7081 C.3     1  UNL1        0.1166
     19 C          67.7838   92.0832   13.9532 C.3     1  UNL1        0.0233
     20 C          66.8149   93.2233   13.8469 C.3     1  UNL1        0.0952
     21 C          60.7827   86.0675    8.0366 C.3     1  UNL1        0.0937
     22 C          61.6180   85.1152    7.2332 C.3     1  UNL1        0.0199
     23 C          61.0390   84.4492    6.0203 C.3     1  UNL1        0.0018
     24 C          63.0324   84.8289    7.6427 C.3     1  UNL1        0.0018
     25 C          62.7401   84.9855   12.2509 C.3     1  UNL1        0.1075
     26 N          62.6504   85.0403   13.7473 N.am    1  UNL1       -0.2695
     27 C          63.8803   84.8326   14.5804 C.2     1  UNL1        0.4020
     28 O          65.1999   84.5701   13.9173 O.2     1  UNL1       -0.2264
     29 H          61.7843   85.2126   14.1825 H       1  UNL1        0.1528
     30 O          63.7906   84.8874   16.0768 O.3     1  UNL1       -0.4291
     31 C          63.1984   86.0904   16.7491 C.3     1  UNL1        0.2447
     32 C          63.5067   87.4650   16.2341 C.ar    1  UNL1        0.0714
     33 C          64.3831   87.7912   15.0612 C.ar    1  UNL1        0.1053
     34 N          64.4107   89.2826   14.9036 N.ar    1  UNL1       -0.2350
     35 C          63.5513   89.8783   15.9792 C.ar    1  UNL1        0.1343
     36 S          62.9926   88.7549   16.8014 S.2     1  UNL1       -0.0652
     37 C          63.6649   84.0066   11.5903 C.3     1  UNL1        0.0485
     38 C          63.3251   82.5457   11.5764 C.ar    1  UNL1       -0.0204
     39 C          63.4230   81.7650   10.2993 C.ar    1  UNL1       -0.0042
     40 C          63.0831   80.3041   10.2854 C.ar    1  UNL1       -0.0003
     41 C          62.6453   79.6238   11.5485 C.ar    1  UNL1       -0.0000
     42 C          62.5474   80.4045   12.8255 C.ar    1  UNL1       -0.0003
     43 C          62.8873   81.8654   12.8395 C.ar    1  UNL1       -0.0042
@<TRIPOS>BOND
     1    19    20    1
     2    20    17    1
     3    17    18    1
     4    17     8    1
     5     8     9   ar
     6     9    10   ar
     7    10    11   ar
     8    11    12   ar
     9    12    13   ar
    10    13     5    1
    11     5     6    2
    12     5     7   am
    13     7    21    1
    14    21    22    1
    15    22    23    1
    16    22    24    1
    17     7     4    1
    18     4     1    1
    19     1     2    1
    20     1    25    1
    21    25    37    1
    22    37    38    1
    23    38    39   ar
    24    39    40   ar
    25    40    41   ar
    26    41    42   ar
    27    42    43   ar
    28    25    26    1
    29    26    27   am
    30    27    28    2
    31    27    30    1
    32    30    31    1
    33    31    32    1
    34    32    33   ar
    35    33    34   ar
    36    34    35   ar
    37    35    36   ar
    38    13    14   ar
    39    14    15   ar
    40    15    16   ar
    41    16     8   ar
    42    15    10   ar
    43    43    38   ar
    44    36    32   ar
    45     2     3    1
    46    26    29    1
@<TRIPOS>MOLECULE
*****
 43 46 0 0 0
SMALL
GASTEIGER

@<TRIPOS>ATOM
      1 C          62.0526   89.3333   12.0151 C.3     1  UNL1        0.1484
      2 O          61.0613   90.0451   12.8873 O.3     1  UNL1       -0.3810
      3 H          61.5338   90.5660   13.5553 H       1  UNL1        0.2105
      4 C          63.5230   89.4994   12.2610 C.3     1  UNL1        0.1245
      5 C          64.1833   90.0290   14.7173 C.2     1  UNL1        0.2492
      6 O          64.6655   91.0022   15.7519 O.2     1  UNL1       -0.2699
      7 N          64.0052   90.4726   13.2956 N.am    1  UNL1       -0.2735
      8 C          63.4426   83.6883   14.6574 C.ar    1  UNL1        0.2924
      9 N          63.0601   84.2963   15.9742 N.ar    1  UNL1       -0.1946
     10 C          63.2710   85.7784   15.8792 C.ar    1  UNL1        0.1202
     11 C          63.0623   86.8873   16.8675 C.ar    1  UNL1        0.0225
     12 C          63.3664   88.3041   16.4802 C.ar    1  UNL1        0.0063
     13 C          63.8792   88.6121   15.1046 C.ar    1  UNL1        0.0567
     14 C          64.0879   87.5032   14.1163 C.ar    1  UNL1        0.0437
     15 C          63.7838   86.0863   14.5036 C.ar    1  UNL1        0.1662
     16 O          63.8898   84.7946   13.7485 O.2     1  UNL1       -0.4237
     17 N          63.3874   82.2300   14.3104 N.pl3   1  UNL1       -0.2619
     18 C          64.6434   81.4999   13.9369 C.3     1  UNL1        0.1166
     19 C          61.9132   80.2228   13.5704 C.3     1  UNL1        0.0233
     20 C          62.0764   81.5018   14.3369 C.3     1  UNL1        0.0952
     21 C          64.3093   91.8895   12.9083 C.3     1  UNL1        0.0937
     22 C          65.6339   92.2310   12.2926 C.3     1  UNL1        0.0199
     23 C          66.8669   92.2800   13.1452 C.3     1  UNL1        0.0018
     24 C          65.7253   92.5233   10.8241 C.3     1  UNL1        0.0018
     25 C          61.5736   88.4555   10.8972 C.3     1  UNL1        0.1075
     26 N          61.4625   89.0060    9.5062 N.am    1  UNL1       -0.2695
     27 C          60.3158   88.6005    8.6285 C.2     1  UNL1        0.4020
     28 O          59.2800   87.6445    9.1416 O.2     1  UNL1       -0.2264
     29 H          62.1423   89.6334    9.1694 H       1  UNL1        0.1528
     30 O          60.2047   89.1510    7.2375 O.3     1  UNL1       -0.4291
     31 C          58.8585   89.4940    6.6719 C.3     1  UNL1        0.2447
     32 C          58.7292   90.5884    5.6543 C.ar    1  UNL1        0.0714
     33 C          57.4445   91.1745    5.1482 C.ar    1  UNL1        0.1053
     34 N          57.7832   92.2372    4.1452 N.ar    1  UNL1       -0.2350
     35 C          59.2772   92.3080    4.0315 C.ar    1  UNL1        0.1343
     36 S          59.8619   91.2889    4.9642 S.2     1  UNL1       -0.0652
     37 C          61.2056   87.0272   11.1701 C.3     1  UNL1        0.0485
     38 C          62.0298   85.9163   10.5898 C.ar    1  UNL1       -0.0204
     39 C          62.5243   86.0086    9.1767 C.ar    1  UNL1       -0.0042
     40 C          63.3485   84.8978    8.5965 C.ar    1  UNL1       -0.0003
     41 C          63.6782   83.6946    9.4293 C.ar    1  UNL1       -0.0000
     42 C          63.1837   83.6023   10.8424 C.ar    1  UNL1       -0.0003
     43 C          62.3595   84.7132   11.4227 C.ar    1  UNL1       -0.0042
@<TRIPOS>BOND
     1    19    20    1
     2    20    17    1
     3    17    18    1
     4    17     8    1
     5     8     9   ar
     6     9    10   ar
     7    10    11   ar
     8    11    12   ar
     9    12    13   ar
    10    13     5    1
    11     5     6    2
    12     5     7   am
    13     7    21    1
    14    21    22    1
    15    22    23    1
    16    22    24    1
    17     7     4    1
    18     4     1    1
    19     1     2    1
    20     1    25    1
    21    25    37    1
    22    37    38    1
    23    38    39   ar
    24    39    40   ar
    25    40    41   ar
    26    41    42   ar
    27    42    43   ar
    28    25    26    1
    29    26    27   am
    30    27    28    2
    31    27    30    1
    32    30    31    1
    33    31    32    1
    34    32    33   ar
    35    33    34   ar
    36    34    35   ar
    37    35    36   ar
    38    13    14   ar
    39    14    15   ar
    40    15    16   ar
    41    16     8   ar
    42    15    10   ar
    43    43    38   ar
    44    36    32   ar
    45     2     3    1
    46    26    29    1
@<TRIPOS>MOLECULE
*****
 43 46 0 0 0
SMALL
GASTEIGER

@<TRIPOS>ATOM
      1 C          62.3890   85.5088   11.4671 C.3     1  UNL1        0.1484
      2 O          63.1952   84.8405   10.3932 O.3     1  UNL1       -0.3810
      3 H          63.3656   83.9189   10.6430 H       1  UNL1        0.2105
      4 C          61.9811   84.7385   12.6878 C.3     1  UNL1        0.1245
      5 C          63.6836   83.9766   14.4964 C.2     1  UNL1        0.2492
      6 O          64.5964   82.9293   15.0621 O.2     1  UNL1       -0.2699
      7 N          62.8939   83.6912   13.2535 N.am    1  UNL1       -0.2735
      8 C          64.2040   90.1647   15.9774 C.ar    1  UNL1        0.2924
      9 N          63.3709   89.4075   16.9687 N.ar    1  UNL1       -0.1946
     10 C          63.3144   87.9747   16.5283 C.ar    1  UNL1        0.1202
     11 C          62.6393   86.7704   17.1145 C.ar    1  UNL1        0.0225
     12 C          62.7624   85.4377   16.4372 C.ar    1  UNL1        0.0063
     13 C          63.5605   85.3094   15.1737 C.ar    1  UNL1        0.0567
     14 C          64.2356   86.5137   14.5875 C.ar    1  UNL1        0.0437
     15 C          64.1126   87.8464   15.2648 C.ar    1  UNL1        0.1662
     16 O          64.6623   89.1999   14.9243 O.2     1  UNL1       -0.4237
     17 N          64.5227   91.6295   16.0300 N.pl3   1  UNL1       -0.2619
     18 C          63.6735   92.5528   16.8525 C.3     1  UNL1        0.1166
     19 C          66.9357   92.5912   15.9833 C.3     1  UNL1        0.0233
     20 C          65.6906   92.1711   15.2601 C.3     1  UNL1        0.0952
     21 C          63.0169   82.3584   12.5762 C.3     1  UNL1        0.0937
     22 C          62.2993   81.1649   13.1334 C.3     1  UNL1        0.0199
     23 C          62.5834   79.7968   12.5879 C.3     1  UNL1        0.0018
     24 C          61.2975   81.3395   14.2362 C.3     1  UNL1        0.0018
     25 C          61.9907   86.9475   11.3203 C.3     1  UNL1        0.1075
     26 N          63.0225   88.0285   11.4506 N.am    1  UNL1       -0.2695
     27 C          62.6587   89.3408   12.0794 C.2     1  UNL1        0.4020
     28 O          61.2630   89.5722   12.5779 O.2     1  UNL1       -0.2264
     29 H          63.9386   87.8766   11.1234 H       1  UNL1        0.1528
     30 O          63.6905   90.4217   12.2097 O.3     1  UNL1       -0.4291
     31 C          63.9066   91.3916   11.0861 C.3     1  UNL1        0.2447
     32 C          65.0747   92.3320   11.1214 C.ar    1  UNL1        0.0714
     33 C          66.2762   92.2127   12.0115 C.ar    1  UNL1        0.1053
     34 N          67.1905   93.3637   11.7130 N.ar    1  UNL1       -0.2350
     35 C          66.5541   94.1946   10.6383 C.ar    1  UNL1        0.1343
     36 S          65.2464   93.5569   10.2727 S.2     1  UNL1       -0.0652
     37 C          60.5606   87.3053   11.0433 C.3     1  UNL1        0.0485
     38 C          60.1408   87.6993    9.6581 C.ar    1  UNL1       -0.0204
     39 C          60.2158   89.1354    9.2317 C.ar    1  UNL1       -0.0042
     40 C          59.7961   89.5294    7.8466 C.ar    1  UNL1       -0.0003
     41 C          59.3013   88.4873    6.8879 C.ar    1  UNL1       -0.0000
     42 C          59.2263   87.0512    7.3143 C.ar    1  UNL1       -0.0003
     43 C          59.6461   86.6572    8.6994 C.ar    1  UNL1       -0.0042
@<TRIPOS>BOND
     1    19    20    1
     2    20    17    1
     3    17    18    1
     4    17     8    1
     5     8     9   ar
     6     9    10   ar
     7    10    11   ar
     8    11    12   ar
     9    12    13   ar
    10    13     5    1
    11     5     6    2
    12     5     7   am
    13     7    21    1
    14    21    22    1
    15    22    23    1
    16    22    24    1
    17     7     4    1
    18     4     1    1
    19     1     2    1
    20     1    25    1
    21    25    37    1
    22    37    38    1
    23    38    39   ar
    24    39    40   ar
    25    40    41   ar
    26    41    42   ar
    27    42    43   ar
    28    25    26    1
    29    26    27   am
    30    27    28    2
    31    27    30    1
    32    30    31    1
    33    31    32    1
    34    32    33   ar
    35    33    34   ar
    36    34    35   ar
    37    35    36   ar
    38    13    14   ar
    39    14    15   ar
    40    15    16   ar
    41    16     8   ar
    42    15    10   ar
    43    43    38   ar
    44    36    32   ar
    45     2     3    1
    46    26    29    1
