@<TRIPOS>MOLECULE
*****
 32 36 0 0 0
SMALL
GASTEIGER

@<TRIPOS>ATOM
      1 O          63.5140   91.2553   12.6478 O.2     1  UNL1       -0.2728
      2 C          63.7789   89.8721   13.1643 C.2     1  UNL1        0.2489
      3 N          63.1589   88.6867   12.4857 N.am    1  UNL1       -0.2779
      4 C          62.2741   88.8844   11.2908 C.3     1  UNL1        0.0935
      5 C          61.6541   87.6991   10.6122 C.3     1  UNL1        0.0219
      6 C          61.9189   86.3159   11.1286 C.3     1  UNL1        0.0078
      7 C          62.8037   86.1181   12.3235 C.3     1  UNL1        0.0419
      8 C          63.4237   87.3035   13.0021 C.3     1  UNL1        0.0953
      9 C          63.0686   84.7350   12.8400 C.ar    1  UNL1       -0.0209
     10 C          62.1843   84.1480   13.8999 C.ar    1  UNL1       -0.0042
     11 C          62.4493   82.7647   14.4163 C.ar    1  UNL1       -0.0003
     12 C          63.5986   81.9686   13.8728 C.ar    1  UNL1       -0.0000
     13 C          64.4829   82.5556   12.8129 C.ar    1  UNL1       -0.0003
     14 C          64.2179   83.9388   12.2965 C.ar    1  UNL1       -0.0042
     15 C          64.6637   89.6744   14.3592 C.3     1  UNL1        0.1972
     16 N          65.1097   90.8575   15.1663 N.ar    1  UNL1       -0.2530
     17 C          64.3093   91.5535   16.2269 C.ar    1  UNL1        0.4224
     18 O          62.9224   91.1886   16.6666 O.2     1  UNL1       -0.2226
     19 O          65.1393   92.6785   16.7705 O.2     1  UNL1       -0.4068
     20 C          66.4527   92.6777   16.0459 C.ar    1  UNL1        0.1661
     21 C          67.6628   93.5564   16.1608 C.ar    1  UNL1        0.0400
     22 C          68.8548   93.3097   15.2842 C.ar    1  UNL1        0.0146
     23 C          68.8365   92.1842   14.2927 C.ar    1  UNL1        0.0593
     24 CL         70.0285   91.9375   13.4161 Cl      1  UNL1       -0.0822
     25 C          67.6263   91.3055   14.1778 C.ar    1  UNL1        0.0319
     26 C          66.4344   91.5523   15.0544 C.ar    1  UNL1        0.1013
     27 C          64.3086   87.1057   14.1971 C.3     1  UNL1        0.0924
     28 N          63.7031   86.9372   15.5590 N.3     1  UNL1       -0.2713
     29 C          63.5537   85.6436   16.3035 C.3     1  UNL1        0.0722
     30 C          62.8990   85.9394   17.6202 C.3     1  UNL1        0.0188
     31 C          62.6439   87.4160   17.6896 C.3     1  UNL1        0.0188
     32 C          63.1409   88.0326   16.4157 C.3     1  UNL1        0.0722
@<TRIPOS>BOND
     1     1     2    2
     2     2    15    1
     3    15    16    1
     4    16    17   ar
     5    17    18    2
     6    17    19   ar
     7    19    20   ar
     8    20    21   ar
     9    21    22   ar
    10    22    23   ar
    11    23    24    1
    12    23    25   ar
    13    25    26   ar
    14     2     3   am
    15     3     4    1
    16     4     5    1
    17     5     6    1
    18     6     7    1
    19     7     9    1
    20     9    10   ar
    21    10    11   ar
    22    11    12   ar
    23    12    13   ar
    24    13    14   ar
    25     7     8    1
    26     8    27    1
    27    27    28    1
    28    28    29    1
    29    29    30    1
    30    30    31    1
    31    31    32    1
    32    26    16   ar
    33     8     3    1
    34    32    28    1
    35    26    20   ar
    36    14     9   ar
@<TRIPOS>MOLECULE
*****
 32 36 0 0 0
SMALL
GASTEIGER

@<TRIPOS>ATOM
      1 O          62.2201   90.6698   12.2415 O.2     1  UNL1       -0.2728
      2 C          62.7439   89.2769   12.4307 C.2     1  UNL1        0.2489
      3 N          62.2349   88.1606   11.5676 N.am    1  UNL1       -0.2779
      4 C          61.2022   88.4372   10.5154 C.3     1  UNL1        0.0935
      5 C          60.6933   87.3209    9.6523 C.3     1  UNL1        0.0219
      6 C          61.2169   85.9281    9.8415 C.3     1  UNL1        0.0078
      7 C          62.2496   85.6515   10.8937 C.3     1  UNL1        0.0419
      8 C          62.7585   86.7678   11.7567 C.3     1  UNL1        0.0953
      9 C          62.7733   84.2588   11.0828 C.ar    1  UNL1       -0.0209
     10 C          64.0561   83.8441   10.4254 C.ar    1  UNL1       -0.0042
     11 C          64.5798   82.4511   10.6147 C.ar    1  UNL1       -0.0003
     12 C          63.8206   81.4730   11.4613 C.ar    1  UNL1       -0.0000
     13 C          62.5377   81.8877   12.1188 C.ar    1  UNL1       -0.0003
     14 C          62.0141   83.2806   11.9295 C.ar    1  UNL1       -0.0042
     15 C          63.7765   89.0004   13.4829 C.3     1  UNL1        0.1972
     16 N          63.9512   89.9506   14.6304 N.ar    1  UNL1       -0.2530
     17 C          62.9977   90.1378   15.7730 C.ar    1  UNL1        0.4224
     18 O          61.7020   89.4078   15.9689 O.2     1  UNL1       -0.2226
     19 O          63.5673   91.1832   16.6855 O.2     1  UNL1       -0.4068
     20 C          64.8729   91.6421   16.1067 C.ar    1  UNL1        0.1661
     21 C          65.8763   92.6552   16.5722 C.ar    1  UNL1        0.0400
     22 C          67.1170   92.9064   15.7675 C.ar    1  UNL1        0.0146
     23 C          67.3542   92.1446   14.4974 C.ar    1  UNL1        0.0593
     24 CL         68.5950   92.3959   13.6927 Cl      1  UNL1       -0.0822
     25 C          66.3508   91.1315   14.0319 C.ar    1  UNL1        0.0319
     26 C          65.1101   90.8802   14.8366 C.ar    1  UNL1        0.1013
     27 C          63.7912   86.4912   12.8089 C.3     1  UNL1        0.0924
     28 N          63.5725   85.3898   13.8033 N.3     1  UNL1       -0.2713
     29 C          62.3281   85.1646   14.6101 C.3     1  UNL1        0.0722
     30 C          62.5462   83.9557   15.4710 C.3     1  UNL1        0.0188
     31 C          63.9254   83.4337   15.1962 C.3     1  UNL1        0.0188
     32 C          64.5596   84.3201   14.1656 C.3     1  UNL1        0.0722
@<TRIPOS>BOND
     1     1     2    2
     2     2    15    1
     3    15    16    1
     4    16    17   ar
     5    17    18    2
     6    17    19   ar
     7    19    20   ar
     8    20    21   ar
     9    21    22   ar
    10    22    23   ar
    11    23    24    1
    12    23    25   ar
    13    25    26   ar
    14     2     3   am
    15     3     4    1
    16     4     5    1
    17     5     6    1
    18     6     7    1
    19     7     9    1
    20     9    10   ar
    21    10    11   ar
    22    11    12   ar
    23    12    13   ar
    24    13    14   ar
    25     7     8    1
    26     8    27    1
    27    27    28    1
    28    28    29    1
    29    29    30    1
    30    30    31    1
    31    31    32    1
    32    26    16   ar
    33     8     3    1
    34    32    28    1
    35    26    20   ar
    36    14     9   ar
@<TRIPOS>MOLECULE
*****
 32 36 0 0 0
SMALL
GASTEIGER

@<TRIPOS>ATOM
      1 O          64.6589   87.9419   15.0205 O.2     1  UNL1       -0.2728
      2 C          63.8943   88.1151   13.7416 C.2     1  UNL1        0.2489
      3 N          63.4098   86.9116   12.9887 N.am    1  UNL1       -0.2779
      4 C          63.6898   85.5350   13.5146 C.3     1  UNL1        0.0935
      5 C          63.2053   84.3315   12.7617 C.3     1  UNL1        0.0219
      6 C          62.4407   84.5046   11.4829 C.3     1  UNL1        0.0078
      7 C          62.1607   85.8812   10.9569 C.3     1  UNL1        0.0419
      8 C          62.6453   87.0847   11.7098 C.3     1  UNL1        0.0953
      9 C          61.3962   86.0543    9.6781 C.ar    1  UNL1       -0.0209
     10 C          60.0755   86.7653    9.6842 C.ar    1  UNL1       -0.0042
     11 C          59.3109   86.9385    8.4052 C.ar    1  UNL1       -0.0003
     12 C          59.8673   86.4006    7.1202 C.ar    1  UNL1       -0.0000
     13 C          61.1880   85.6896    7.1141 C.ar    1  UNL1       -0.0003
     14 C          61.9525   85.5165    8.3930 C.ar    1  UNL1       -0.0042
     15 C          63.6144   89.4916   13.2157 C.3     1  UNL1        0.1972
     16 N          64.2660   90.6841   13.8508 N.ar    1  UNL1       -0.2530
     17 C          64.1964   91.0584   15.3017 C.ar    1  UNL1        0.4224
     18 O          63.4630   90.3060   16.3722 O.2     1  UNL1       -0.2226
     19 O          64.9890   92.3173   15.4941 O.2     1  UNL1       -0.4068
     20 C          65.5485   92.7210   14.1622 C.ar    1  UNL1        0.1661
     21 C          66.4071   93.8772   13.7429 C.ar    1  UNL1        0.0400
     22 C          66.8188   94.0241   12.3081 C.ar    1  UNL1        0.0146
     23 C          66.3719   93.0148   11.2925 C.ar    1  UNL1        0.0593
     24 CL         66.7837   93.1617    9.8575 Cl      1  UNL1       -0.0822
     25 C          65.5133   91.8585   11.7117 C.ar    1  UNL1        0.0319
     26 C          65.1016   91.7116   13.1465 C.ar    1  UNL1        0.1013
     27 C          62.3653   88.4612   11.1839 C.3     1  UNL1        0.0924
     28 N          61.0527   89.1244   11.4792 N.3     1  UNL1       -0.2713
     29 C          60.5910   90.4453   10.9389 C.3     1  UNL1        0.0722
     30 C          59.2243   90.7205   11.4924 C.3     1  UNL1        0.0188
     31 C          58.8412   89.5695   12.3748 C.3     1  UNL1        0.0188
     32 C          59.9713   88.5830   12.3666 C.3     1  UNL1        0.0722
@<TRIPOS>BOND
     1     1     2    2
     2     2    15    1
     3    15    16    1
     4    16    17   ar
     5    17    18    2
     6    17    19   ar
     7    19    20   ar
     8    20    21   ar
     9    21    22   ar
    10    22    23   ar
    11    23    24    1
    12    23    25   ar
    13    25    26   ar
    14     2     3   am
    15     3     4    1
    16     4     5    1
    17     5     6    1
    18     6     7    1
    19     7     9    1
    20     9    10   ar
    21    10    11   ar
    22    11    12   ar
    23    12    13   ar
    24    13    14   ar
    25     7     8    1
    26     8    27    1
    27    27    28    1
    28    28    29    1
    29    29    30    1
    30    30    31    1
    31    31    32    1
    32    26    16   ar
    33     8     3    1
    34    32    28    1
    35    26    20   ar
    36    14     9   ar
@<TRIPOS>MOLECULE
*****
 32 36 0 0 0
SMALL
GASTEIGER

@<TRIPOS>ATOM
      1 O          64.3918   86.8796   15.9257 O.2     1  UNL1       -0.2728
      2 C          63.9604   87.1242   14.5099 C.2     1  UNL1        0.2489
      3 N          63.4938   85.9798   13.6599 N.am    1  UNL1       -0.2779
      4 C          63.4586   84.5909   14.2254 C.3     1  UNL1        0.0935
      5 C          62.9921   83.4465   13.3754 C.3     1  UNL1        0.0219
      6 C          62.5606   83.6909   11.9597 C.3     1  UNL1        0.0078
      7 C          62.5958   85.0798   11.3941 C.3     1  UNL1        0.0419
      8 C          63.0624   86.2242   12.2442 C.3     1  UNL1        0.0953
      9 C          62.1644   85.3243    9.9785 C.ar    1  UNL1       -0.0209
     10 C          60.8396   85.9697    9.6989 C.ar    1  UNL1       -0.0042
     11 C          60.4082   86.2142    8.2832 C.ar    1  UNL1       -0.0003
     12 C          61.3018   85.8133    7.1470 C.ar    1  UNL1       -0.0000
     13 C          62.6266   85.1678    7.4266 C.ar    1  UNL1       -0.0003
     14 C          63.0579   84.9233    8.8422 C.ar    1  UNL1       -0.0042
     15 C          63.9956   88.5130   13.9444 C.3     1  UNL1        0.1972
     16 N          64.0550   89.6962   14.8645 N.ar    1  UNL1       -0.2530
     17 C          63.0210   90.0735   15.8835 C.ar    1  UNL1        0.4224
     18 O          61.7460   89.3338   16.1615 O.2     1  UNL1       -0.2226
     19 O          63.4859   91.3203   16.5758 O.2     1  UNL1       -0.4068
     20 C          64.8072   91.7136   15.9846 C.ar    1  UNL1        0.1661
     21 C          65.7354   92.8561   16.2728 C.ar    1  UNL1        0.0400
     22 C          67.0154   92.9948   15.5032 C.ar    1  UNL1        0.0146
     23 C          67.3672   91.9910   14.4455 C.ar    1  UNL1        0.0593
     24 CL         68.6473   92.1298   13.6760 Cl      1  UNL1       -0.0822
     25 C          66.4389   90.8485   14.1574 C.ar    1  UNL1        0.0319
     26 C          65.1589   90.7099   14.9270 C.ar    1  UNL1        0.1013
     27 C          63.0976   87.6130   11.6786 C.3     1  UNL1        0.0924
     28 N          61.8385   88.4249   11.6046 N.3     1  UNL1       -0.2713
     29 C          60.4772   87.9835   12.0541 C.3     1  UNL1        0.0722
     30 C          59.5169   89.1064   11.7955 C.3     1  UNL1        0.0188
     31 C          60.2847   90.2418   11.1861 C.3     1  UNL1        0.0188
     32 C          61.7195   89.8206   11.0681 C.3     1  UNL1        0.0722
@<TRIPOS>BOND
     1     1     2    2
     2     2    15    1
     3    15    16    1
     4    16    17   ar
     5    17    18    2
     6    17    19   ar
     7    19    20   ar
     8    20    21   ar
     9    21    22   ar
    10    22    23   ar
    11    23    24    1
    12    23    25   ar
    13    25    26   ar
    14     2     3   am
    15     3     4    1
    16     4     5    1
    17     5     6    1
    18     6     7    1
    19     7     9    1
    20     9    10   ar
    21    10    11   ar
    22    11    12   ar
    23    12    13   ar
    24    13    14   ar
    25     7     8    1
    26     8    27    1
    27    27    28    1
    28    28    29    1
    29    29    30    1
    30    30    31    1
    31    31    32    1
    32    26    16   ar
    33     8     3    1
    34    32    28    1
    35    26    20   ar
    36    14     9   ar
@<TRIPOS>MOLECULE
*****
 32 36 0 0 0
SMALL
GASTEIGER

@<TRIPOS>ATOM
      1 O          64.2026   89.0137   14.9353 O.2     1  UNL1       -0.2728
      2 C          63.5489   88.8720   13.5926 C.2     1  UNL1        0.2489
      3 N          63.3964   87.5148   12.9723 N.am    1  UNL1       -0.2779
      4 C          63.8974   86.2994   13.6947 C.3     1  UNL1        0.0935
      5 C          63.7448   84.9422   13.0744 C.3     1  UNL1        0.0219
      6 C          63.0913   84.8004   11.7317 C.3     1  UNL1        0.0078
      7 C          62.5902   86.0158   11.0094 C.3     1  UNL1        0.0419
      8 C          62.7428   87.3730   11.6297 C.3     1  UNL1        0.0953
      9 C          61.9367   85.8741    9.6668 C.ar    1  UNL1       -0.0209
     10 C          60.5192   86.3241    9.4713 C.ar    1  UNL1       -0.0042
     11 C          59.8656   86.1823    8.1286 C.ar    1  UNL1       -0.0003
     12 C          60.6296   85.5906    6.9813 C.ar    1  UNL1       -0.0000
     13 C          62.0471   85.1406    7.1768 C.ar    1  UNL1       -0.0003
     14 C          62.7006   85.2823    8.5194 C.ar    1  UNL1       -0.0042
     15 C          63.0479   90.0874   12.8703 C.3     1  UNL1        0.1972
     16 N          64.0162   91.1301   12.3957 N.ar    1  UNL1       -0.2530
     17 C          64.1464   91.6378   10.9903 C.ar    1  UNL1        0.4224
     18 O          63.3312   91.1920    9.8127 O.2     1  UNL1       -0.2226
     19 O          65.2348   92.6697   10.9692 O.2     1  UNL1       -0.4068
     20 C          65.7774   92.7997   12.3616 C.ar    1  UNL1        0.1661
     21 C          66.8599   93.6616   12.9406 C.ar    1  UNL1        0.0400
     22 C          67.1892   93.5720   14.4012 C.ar    1  UNL1        0.0146
     23 C          66.4360   92.6204   15.2829 C.ar    1  UNL1        0.0593
     24 CL         66.7654   92.5308   16.7436 Cl      1  UNL1       -0.0822
     25 C          65.3535   91.7585   14.7039 C.ar    1  UNL1        0.0319
     26 C          65.0242   91.8482   13.2433 C.ar    1  UNL1        0.1013
     27 C          62.2418   88.5884   10.9073 C.3     1  UNL1        0.0924
     28 N          60.9127   89.1816   11.2699 N.3     1  UNL1       -0.2713
     29 C          59.8714   88.5450   12.1418 C.3     1  UNL1        0.0722
     30 C          58.7066   89.4855   12.2350 C.3     1  UNL1        0.0188
     31 C          59.0280   90.7035   11.4206 C.3     1  UNL1        0.0188
     32 C          60.3915   90.5157   10.8241 C.3     1  UNL1        0.0722
@<TRIPOS>BOND
     1     1     2    2
     2     2    15    1
     3    15    16    1
     4    16    17   ar
     5    17    18    2
     6    17    19   ar
     7    19    20   ar
     8    20    21   ar
     9    21    22   ar
    10    22    23   ar
    11    23    24    1
    12    23    25   ar
    13    25    26   ar
    14     2     3   am
    15     3     4    1
    16     4     5    1
    17     5     6    1
    18     6     7    1
    19     7     9    1
    20     9    10   ar
    21    10    11   ar
    22    11    12   ar
    23    12    13   ar
    24    13    14   ar
    25     7     8    1
    26     8    27    1
    27    27    28    1
    28    28    29    1
    29    29    30    1
    30    30    31    1
    31    31    32    1
    32    26    16   ar
    33     8     3    1
    34    32    28    1
    35    26    20   ar
    36    14     9   ar
@<TRIPOS>MOLECULE
*****
 32 36 0 0 0
SMALL
GASTEIGER

@<TRIPOS>ATOM
      1 O          61.7246   86.3373   11.3020 O.2     1  UNL1       -0.2728
      2 C          62.6600   86.9707   12.2889 C.2     1  UNL1        0.2489
      3 N          62.9512   88.4401   12.2097 N.am    1  UNL1       -0.2779
      4 C          62.3070   89.2759   11.1437 C.3     1  UNL1        0.0935
      5 C          62.5981   90.7452   11.0645 C.3     1  UNL1        0.0219
      6 C          63.5334   91.3787   12.0513 C.3     1  UNL1        0.0078
      7 C          64.1776   90.5429   13.1173 C.3     1  UNL1        0.0419
      8 C          63.8865   89.0736   13.1965 C.3     1  UNL1        0.0953
      9 C          65.1130   91.1763   14.1041 C.ar    1  UNL1       -0.0209
     10 C          66.5712   91.3075   13.7779 C.ar    1  UNL1       -0.0042
     11 C          67.5065   91.9410   14.7648 C.ar    1  UNL1       -0.0003
     12 C          66.9836   92.4433   16.0779 C.ar    1  UNL1       -0.0000
     13 C          65.5254   92.3121   16.4042 C.ar    1  UNL1       -0.0003
     14 C          64.5901   91.6787   15.4173 C.ar    1  UNL1       -0.0042
     15 C          63.3042   86.1349   13.3549 C.3     1  UNL1        0.1972
     16 N          62.8542   84.7207   13.5734 N.ar    1  UNL1       -0.2530
     17 C          62.0657   84.2176   14.7461 C.ar    1  UNL1        0.4224
     18 O          61.5888   85.0403   15.9061 O.2     1  UNL1       -0.2226
     19 O          61.8379   82.7474   14.5549 O.2     1  UNL1       -0.4068
     20 C          62.4856   82.3418   13.2642 C.ar    1  UNL1        0.1661
     21 C          62.5845   81.0196   12.5629 C.ar    1  UNL1        0.0400
     22 C          63.3116   80.9170   11.2549 C.ar    1  UNL1        0.0146
     23 C          63.9397   82.1366   10.6482 C.ar    1  UNL1        0.0593
     24 CL         64.6667   82.0340    9.3402 Cl      1  UNL1       -0.0822
     25 C          63.8407   83.4589   11.3495 C.ar    1  UNL1        0.0319
     26 C          63.1137   83.5615   12.6575 C.ar    1  UNL1        0.1013
     27 C          64.5307   88.2377   14.2625 C.3     1  UNL1        0.0924
     28 N          63.8436   88.0448   15.5818 N.3     1  UNL1       -0.2713
     29 C          63.8196   86.7792   16.3865 C.3     1  UNL1        0.0722
     30 C          63.0211   87.0357   17.6302 C.3     1  UNL1        0.0188
     31 C          62.5517   88.4600   17.5941 C.3     1  UNL1        0.0188
     32 C          63.0601   89.0836   16.3281 C.3     1  UNL1        0.0722
@<TRIPOS>BOND
     1     1     2    2
     2     2    15    1
     3    15    16    1
     4    16    17   ar
     5    17    18    2
     6    17    19   ar
     7    19    20   ar
     8    20    21   ar
     9    21    22   ar
    10    22    23   ar
    11    23    24    1
    12    23    25   ar
    13    25    26   ar
    14     2     3   am
    15     3     4    1
    16     4     5    1
    17     5     6    1
    18     6     7    1
    19     7     9    1
    20     9    10   ar
    21    10    11   ar
    22    11    12   ar
    23    12    13   ar
    24    13    14   ar
    25     7     8    1
    26     8    27    1
    27    27    28    1
    28    28    29    1
    29    29    30    1
    30    30    31    1
    31    31    32    1
    32    26    16   ar
    33     8     3    1
    34    32    28    1
    35    26    20   ar
    36    14     9   ar
@<TRIPOS>MOLECULE
*****
 32 36 0 0 0
SMALL
GASTEIGER

@<TRIPOS>ATOM
      1 O          64.6096   83.0594   10.0964 O.2     1  UNL1       -0.2728
      2 C          63.8712   84.1929   10.7447 C.2     1  UNL1        0.2489
      3 N          62.9668   85.0649    9.9251 N.am    1  UNL1       -0.2779
      4 C          62.8007   84.8034    8.4574 C.3     1  UNL1        0.0935
      5 C          61.8963   85.6753    7.6378 C.3     1  UNL1        0.0219
      6 C          61.1579   86.8088    8.2859 C.3     1  UNL1        0.0078
      7 C          61.3240   87.0703    9.7536 C.3     1  UNL1        0.0419
      8 C          62.2284   86.1983   10.5731 C.3     1  UNL1        0.0953
      9 C          60.5856   88.2037   10.4017 C.ar    1  UNL1       -0.0209
     10 C          60.7245   89.5960    9.8611 C.ar    1  UNL1       -0.0042
     11 C          59.9861   90.7294   10.5093 C.ar    1  UNL1       -0.0003
     12 C          59.1088   90.4706   11.6982 C.ar    1  UNL1       -0.0000
     13 C          58.9699   89.0783   12.2388 C.ar    1  UNL1       -0.0003
     14 C          59.7083   87.9449   11.5906 C.ar    1  UNL1       -0.0042
     15 C          64.0373   84.4543   12.2122 C.3     1  UNL1        0.1972
     16 N          63.3765   83.5543   13.2139 N.ar    1  UNL1       -0.2530
     17 C          62.9933   83.9263   14.6156 C.ar    1  UNL1        0.4224
     18 O          63.2036   85.2635   15.2618 O.2     1  UNL1       -0.2226
     19 O          62.3629   82.7261   15.2577 O.2     1  UNL1       -0.4068
     20 C          62.3565   81.6125   14.2529 C.ar    1  UNL1        0.1661
     21 C          61.8612   80.1985   14.3249 C.ar    1  UNL1        0.0400
     22 C          61.9924   79.2963   13.1338 C.ar    1  UNL1        0.0146
     23 C          62.6188   79.8082   11.8706 C.ar    1  UNL1        0.0593
     24 CL         62.7499   78.9059   10.6794 Cl      1  UNL1       -0.0822
     25 C          63.1141   81.2222   11.7986 C.ar    1  UNL1        0.0319
     26 C          62.9830   82.1243   12.9897 C.ar    1  UNL1        0.1013
     27 C          62.3944   86.4598   12.0408 C.3     1  UNL1        0.0924
     28 N          63.0510   87.7251   12.5077 N.3     1  UNL1       -0.2713
     29 C          63.8556   87.8895   13.7629 C.3     1  UNL1        0.0722
     30 C          64.3202   89.3141   13.8324 C.3     1  UNL1        0.0188
     31 C          63.8028   90.0301   12.6200 C.3     1  UNL1        0.0188
     32 C          63.0183   89.0479   11.8013 C.3     1  UNL1        0.0722
@<TRIPOS>BOND
     1     1     2    2
     2     2    15    1
     3    15    16    1
     4    16    17   ar
     5    17    18    2
     6    17    19   ar
     7    19    20   ar
     8    20    21   ar
     9    21    22   ar
    10    22    23   ar
    11    23    24    1
    12    23    25   ar
    13    25    26   ar
    14     2     3   am
    15     3     4    1
    16     4     5    1
    17     5     6    1
    18     6     7    1
    19     7     9    1
    20     9    10   ar
    21    10    11   ar
    22    11    12   ar
    23    12    13   ar
    24    13    14   ar
    25     7     8    1
    26     8    27    1
    27    27    28    1
    28    28    29    1
    29    29    30    1
    30    30    31    1
    31    31    32    1
    32    26    16   ar
    33     8     3    1
    34    32    28    1
    35    26    20   ar
    36    14     9   ar
@<TRIPOS>MOLECULE
*****
 32 36 0 0 0
SMALL
GASTEIGER

@<TRIPOS>ATOM
      1 O          60.9430   91.1913   11.5356 O.2     1  UNL1       -0.2728
      2 C          61.8162   89.9842   11.7108 C.2     1  UNL1        0.2489
      3 N          61.3732   88.6543   11.1768 N.am    1  UNL1       -0.2779
      4 C          60.0571   88.5315   10.4677 C.3     1  UNL1        0.0935
      5 C          59.6141   87.2016    9.9337 C.3     1  UNL1        0.0219
      6 C          60.4872   85.9945   10.1088 C.3     1  UNL1        0.0078
      7 C          61.8033   86.1174   10.8179 C.3     1  UNL1        0.0419
      8 C          62.2463   87.4473   11.3519 C.3     1  UNL1        0.0953
      9 C          62.6764   84.9104   10.9930 C.ar    1  UNL1       -0.0209
     10 C          63.5886   84.4772    9.8839 C.ar    1  UNL1       -0.0042
     11 C          64.4618   83.2701   10.0591 C.ar    1  UNL1       -0.0003
     12 C          64.4227   82.4962   11.3435 C.ar    1  UNL1       -0.0000
     13 C          63.5105   82.9294   12.4527 C.ar    1  UNL1       -0.0003
     14 C          62.6374   84.1364   12.2774 C.ar    1  UNL1       -0.0042
     15 C          63.1322   90.1071   12.4198 C.3     1  UNL1        0.1972
     16 N          64.0505   91.2503   12.1039 N.ar    1  UNL1       -0.2530
     17 C          64.2086   91.9105   10.7664 C.ar    1  UNL1        0.4224
     18 O          63.4762   91.5436    9.5099 O.2     1  UNL1       -0.2226
     19 O          65.2278   93.0022   10.9060 O.2     1  UNL1       -0.4068
     20 C          65.6996   93.0166   12.3298 C.ar    1  UNL1        0.1661
     21 C          66.6978   93.8758   13.0477 C.ar    1  UNL1        0.0400
     22 C          66.9683   93.6522   14.5061 C.ar    1  UNL1        0.0146
     23 C          66.2406   92.5695   15.2465 C.ar    1  UNL1        0.0593
     24 CL         66.5112   92.3459   16.7049 Cl      1  UNL1       -0.0822
     25 C          65.2425   91.7103   14.5285 C.ar    1  UNL1        0.0319
     26 C          64.9720   91.9339   13.0702 C.ar    1  UNL1        0.1013
     27 C          63.5623   87.5701   12.0610 C.3     1  UNL1        0.0924
     28 N          63.6524   87.2821   13.5303 N.3     1  UNL1       -0.2713
     29 C          63.9588   85.9512   14.1506 C.3     1  UNL1        0.0722
     30 C          63.9477   86.1208   15.6410 C.3     1  UNL1        0.0188
     31 C          63.6345   87.5566   15.9417 C.3     1  UNL1        0.0188
     32 C          63.4520   88.2743   14.6372 C.3     1  UNL1        0.0722
@<TRIPOS>BOND
     1     1     2    2
     2     2    15    1
     3    15    16    1
     4    16    17   ar
     5    17    18    2
     6    17    19   ar
     7    19    20   ar
     8    20    21   ar
     9    21    22   ar
    10    22    23   ar
    11    23    24    1
    12    23    25   ar
    13    25    26   ar
    14     2     3   am
    15     3     4    1
    16     4     5    1
    17     5     6    1
    18     6     7    1
    19     7     9    1
    20     9    10   ar
    21    10    11   ar
    22    11    12   ar
    23    12    13   ar
    24    13    14   ar
    25     7     8    1
    26     8    27    1
    27    27    28    1
    28    28    29    1
    29    29    30    1
    30    30    31    1
    31    31    32    1
    32    26    16   ar
    33     8     3    1
    34    32    28    1
    35    26    20   ar
    36    14     9   ar
@<TRIPOS>MOLECULE
*****
 32 36 0 0 0
SMALL
GASTEIGER

@<TRIPOS>ATOM
      1 O          64.0864   86.4749   13.8566 O.2     1  UNL1       -0.2728
      2 C          63.1412   86.4545   12.6920 C.2     1  UNL1        0.2489
      3 N          62.7857   87.7327   11.9923 N.am    1  UNL1       -0.2779
      4 C          63.3752   89.0313   12.4571 C.3     1  UNL1        0.0935
      5 C          63.0197   90.3096   11.7574 C.3     1  UNL1        0.0219
      6 C          62.0746   90.2893   10.5928 C.3     1  UNL1        0.0078
      7 C          61.4850   88.9907   10.1279 C.3     1  UNL1        0.0419
      8 C          61.8405   87.7125   10.8277 C.3     1  UNL1        0.0953
      9 C          60.5399   88.9703    8.9634 C.ar    1  UNL1       -0.0209
     10 C          59.4194   87.9738    8.9240 C.ar    1  UNL1       -0.0042
     11 C          58.4743   87.9535    7.7593 C.ar    1  UNL1       -0.0003
     12 C          58.6496   88.9297    6.6340 C.ar    1  UNL1       -0.0000
     13 C          59.7701   89.9262    6.6734 C.ar    1  UNL1       -0.0003
     14 C          60.7151   89.9465    7.8380 C.ar    1  UNL1       -0.0042
     15 C          62.5517   85.1559   12.2272 C.3     1  UNL1        0.1972
     16 N          62.5276   83.9713   13.1470 N.ar    1  UNL1       -0.2530
     17 C          62.4086   84.0177   14.6415 C.ar    1  UNL1        0.4224
     18 O          62.2930   85.2570   15.4787 O.2     1  UNL1       -0.2226
     19 O          62.4256   82.6073   15.1519 O.2     1  UNL1       -0.4068
     20 C          62.5551   81.6892   13.9728 C.ar    1  UNL1        0.1661
     21 C          62.6238   80.1945   13.8673 C.ar    1  UNL1        0.0400
     22 C          62.7554   79.5428   12.5227 C.ar    1  UNL1        0.0146
     23 C          62.8184   80.3858   11.2836 C.ar    1  UNL1        0.0593
     24 CL         62.9500   79.7340    9.9390 Cl      1  UNL1       -0.0822
     25 C          62.7497   81.8805   11.3891 C.ar    1  UNL1        0.0319
     26 C          62.6181   82.5322   12.7336 C.ar    1  UNL1        0.1013
     27 C          61.2510   86.4139   10.3628 C.3     1  UNL1        0.0924
     28 N          61.6902   85.8146    9.0598 N.3     1  UNL1       -0.2713
     29 C          60.8082   85.5215    7.8824 C.3     1  UNL1        0.0722
     30 C          61.6613   84.9288    6.8003 C.3     1  UNL1        0.0188
     31 C          63.0706   84.8557    7.3089 C.3     1  UNL1        0.0188
     32 C          63.0884   85.4031    8.7053 C.3     1  UNL1        0.0722
@<TRIPOS>BOND
     1     1     2    2
     2     2    15    1
     3    15    16    1
     4    16    17   ar
     5    17    18    2
     6    17    19   ar
     7    19    20   ar
     8    20    21   ar
     9    21    22   ar
    10    22    23   ar
    11    23    24    1
    12    23    25   ar
    13    25    26   ar
    14     2     3   am
    15     3     4    1
    16     4     5    1
    17     5     6    1
    18     6     7    1
    19     7     9    1
    20     9    10   ar
    21    10    11   ar
    22    11    12   ar
    23    12    13   ar
    24    13    14   ar
    25     7     8    1
    26     8    27    1
    27    27    28    1
    28    28    29    1
    29    29    30    1
    30    30    31    1
    31    31    32    1
    32    26    16   ar
    33     8     3    1
    34    32    28    1
    35    26    20   ar
    36    14     9   ar
